version 2
run LTE-LTE-0-20130805-14:47:13-7664
attr configname LTE-LTE
attr datetime 20130805-14:47:13
attr experiment LTE-LTE
attr inifile lteCoreExample.ini
attr iterationvars ""
attr iterationvars2 $repetition=0
attr measurement ""
attr network lteCoreNetwork
attr processid 7664
attr repetition 0
attr replication #0
attr resultdir ResultLteCoreNetwork
attr runnumber 0
attr seedset 0

scalar lteCoreNetwork.pgwStandard.networkLayer.arp 	failedResolution:count 	0
attr title  "ARP failed resolutions, count"
scalar lteCoreNetwork.pgwStandard.networkLayer.arp 	initiatedResolution:count 	0
attr title  "ARP initiated resolutions, count"
scalar lteCoreNetwork.pgwStandard.networkLayer.arp 	sentReplies:count 	0
attr title  "ARP replies sent, count"
scalar lteCoreNetwork.pgwStandard.networkLayer.arp 	sentReq:count 	0
attr title  "ARP request sent, count"
scalar lteCoreNetwork.pgwStandard.ppp[0].queue 	queueLength:max 	0
attr interpolationmode  sample-hold
attr title  "queue length, max"
scalar lteCoreNetwork.pgwStandard.ppp[0].queue 	queueLength:timeavg 	0
attr interpolationmode  sample-hold
attr title  "queue length, timeavg"
statistic lteCoreNetwork.pgwStandard.ppp[0].queue 	queueingTime:histogram
field count 56
field mean 0
field stddev 0
field sum 0
field sqrsum 0
field min 0
field max 0
attr interpolationmode  none
attr title  "queueing time, histogram"
bin	-INF	0
bin	-0.5	0
bin	-0.46666666666667	0
bin	-0.43333333333333	0
bin	-0.4	0
bin	-0.36666666666667	0
bin	-0.33333333333333	0
bin	-0.3	0
bin	-0.26666666666667	0
bin	-0.23333333333333	0
bin	-0.2	0
bin	-0.16666666666667	0
bin	-0.13333333333333	0
bin	-0.1	0
bin	-0.066666666666667	0
bin	-0.033333333333333	0
bin	-6.9388939039072e-18	56
bin	0.033333333333333	0
bin	0.066666666666667	0
bin	0.1	0
bin	0.13333333333333	0
bin	0.16666666666667	0
bin	0.2	0
bin	0.23333333333333	0
bin	0.26666666666667	0
bin	0.3	0
bin	0.33333333333333	0
bin	0.36666666666667	0
bin	0.4	0
bin	0.43333333333333	0
bin	0.46666666666667	0
bin	0.5	0
scalar lteCoreNetwork.pgwStandard.ppp[0].queue 	dropPk:count 	0
attr interpolationmode  none
attr source  dropPkByQueue
attr title  "dropped packets, count"
scalar lteCoreNetwork.pgwStandard.ppp[0].queue 	dropPk:sum(packetBytes) 	0
attr interpolationmode  none
attr source  dropPkByQueue
attr title  "dropped packets, sum(packetBytes)"
scalar lteCoreNetwork.pgwStandard.ppp[0].queue 	rcvdPk:count 	56
attr interpolationmode  none
attr title  "received packets, count"
scalar lteCoreNetwork.pgwStandard.ppp[0].queue 	rcvdPk:sum(packetBytes) 	5824
attr interpolationmode  none
attr title  "received packets, sum(packetBytes)"
scalar lteCoreNetwork.pgwStandard.ppp[0].ppp 	passedUpPk:count 	56
attr interpolationmode  none
attr source  packetSentToUpper
attr title  "packets passed to higher layer, count"
scalar lteCoreNetwork.pgwStandard.ppp[0].ppp 	passedUpPk:sum(packetBytes) 	5824
attr interpolationmode  none
attr source  packetSentToUpper
attr title  "packets passed to higher layer, sum(packetBytes)"
scalar lteCoreNetwork.pgwStandard.ppp[0].ppp 	rcvdPkFromHL:count 	56
attr interpolationmode  none
attr source  packetReceivedFromUpper
attr title  "packets received from higher layer, count"
scalar lteCoreNetwork.pgwStandard.ppp[0].ppp 	rcvdPkFromHL:sum(packetBytes) 	5824
attr interpolationmode  none
attr source  packetReceivedFromUpper
attr title  "packets received from higher layer, sum(packetBytes)"
scalar lteCoreNetwork.pgwStandard.ppp[0].ppp 	droppedPkIfaceDown:count 	0
attr interpolationmode  none
attr source  dropPkIfaceDown
attr title  "packets dropped/interface down, count"
scalar lteCoreNetwork.pgwStandard.ppp[0].ppp 	droppedPkIfaceDown:sum(packetBytes) 	0
attr interpolationmode  none
attr source  dropPkIfaceDown
attr title  "packets dropped/interface down, sum(packetBytes)"
scalar lteCoreNetwork.pgwStandard.ppp[0].ppp 	droppedPkBitError:count 	0
attr interpolationmode  none
attr source  dropPkBitError
attr title  "packets dropped/bit error, count"
scalar lteCoreNetwork.pgwStandard.ppp[0].ppp 	droppedPkBitError:sum(packetBytes) 	0
attr interpolationmode  none
attr source  dropPkBitError
attr title  "packets dropped/bit error, sum(packetBytes)"
scalar lteCoreNetwork.pgwStandard.ppp[0].ppp 	rxPkOk:count 	56
attr interpolationmode  none
attr source  rxPkOk
attr title  "packets received OK, count"
scalar lteCoreNetwork.pgwStandard.ppp[0].ppp 	rxPkOk:sum(packetBytes) 	6216
attr interpolationmode  none
attr source  rxPkOk
attr title  "packets received OK, sum(packetBytes)"
scalar lteCoreNetwork.pgwStandard.ppp[0].ppp 	txPk:count 	56
attr interpolationmode  none
attr source  packetSentToLower
attr title  "packets transmitted, count"
scalar lteCoreNetwork.pgwStandard.ppp[0].ppp 	txPk:sum(packetBytes) 	6216
attr interpolationmode  none
attr source  packetSentToLower
attr title  "packets transmitted, sum(packetBytes)"
scalar lteCoreNetwork.pgwStandard.ppp[0].ppp 	txState:timeavg 	0.00065417046034142
attr interpolationmode  sample-hold
attr title  "tx state, timeavg"
scalar lteCoreNetwork.pgwStandard.pppInterface.queue 	queueLength:max 	0
attr interpolationmode  sample-hold
attr title  "queue length, max"
scalar lteCoreNetwork.pgwStandard.pppInterface.queue 	queueLength:timeavg 	0
attr interpolationmode  sample-hold
attr title  "queue length, timeavg"
statistic lteCoreNetwork.pgwStandard.pppInterface.queue 	queueingTime:histogram
field count 0
field mean 0
field stddev -nan
field sum 0
field sqrsum 0
field min 0
field max 0
attr interpolationmode  none
attr title  "queueing time, histogram"
bin	-INF	0
bin	-0.5	0
bin	-0.46666666666667	0
bin	-0.43333333333333	0
bin	-0.4	0
bin	-0.36666666666667	0
bin	-0.33333333333333	0
bin	-0.3	0
bin	-0.26666666666667	0
bin	-0.23333333333333	0
bin	-0.2	0
bin	-0.16666666666667	0
bin	-0.13333333333333	0
bin	-0.1	0
bin	-0.066666666666667	0
bin	-0.033333333333333	0
bin	-6.9388939039072e-18	0
bin	0.033333333333333	0
bin	0.066666666666667	0
bin	0.1	0
bin	0.13333333333333	0
bin	0.16666666666667	0
bin	0.2	0
bin	0.23333333333333	0
bin	0.26666666666667	0
bin	0.3	0
bin	0.33333333333333	0
bin	0.36666666666667	0
bin	0.4	0
bin	0.43333333333333	0
bin	0.46666666666667	0
bin	0.5	0
scalar lteCoreNetwork.pgwStandard.pppInterface.queue 	dropPk:count 	0
attr interpolationmode  none
attr source  dropPkByQueue
attr title  "dropped packets, count"
scalar lteCoreNetwork.pgwStandard.pppInterface.queue 	dropPk:sum(packetBytes) 	0
attr interpolationmode  none
attr source  dropPkByQueue
attr title  "dropped packets, sum(packetBytes)"
scalar lteCoreNetwork.pgwStandard.pppInterface.queue 	rcvdPk:count 	0
attr interpolationmode  none
attr title  "received packets, count"
scalar lteCoreNetwork.pgwStandard.pppInterface.queue 	rcvdPk:sum(packetBytes) 	0
attr interpolationmode  none
attr title  "received packets, sum(packetBytes)"
scalar lteCoreNetwork.pgwStandard.pppInterface.ppp 	passedUpPk:count 	0
attr interpolationmode  none
attr source  packetSentToUpper
attr title  "packets passed to higher layer, count"
scalar lteCoreNetwork.pgwStandard.pppInterface.ppp 	passedUpPk:sum(packetBytes) 	0
attr interpolationmode  none
attr source  packetSentToUpper
attr title  "packets passed to higher layer, sum(packetBytes)"
scalar lteCoreNetwork.pgwStandard.pppInterface.ppp 	rcvdPkFromHL:count 	0
attr interpolationmode  none
attr source  packetReceivedFromUpper
attr title  "packets received from higher layer, count"
scalar lteCoreNetwork.pgwStandard.pppInterface.ppp 	rcvdPkFromHL:sum(packetBytes) 	0
attr interpolationmode  none
attr source  packetReceivedFromUpper
attr title  "packets received from higher layer, sum(packetBytes)"
scalar lteCoreNetwork.pgwStandard.pppInterface.ppp 	droppedPkIfaceDown:count 	0
attr interpolationmode  none
attr source  dropPkIfaceDown
attr title  "packets dropped/interface down, count"
scalar lteCoreNetwork.pgwStandard.pppInterface.ppp 	droppedPkIfaceDown:sum(packetBytes) 	0
attr interpolationmode  none
attr source  dropPkIfaceDown
attr title  "packets dropped/interface down, sum(packetBytes)"
scalar lteCoreNetwork.pgwStandard.pppInterface.ppp 	droppedPkBitError:count 	0
attr interpolationmode  none
attr source  dropPkBitError
attr title  "packets dropped/bit error, count"
scalar lteCoreNetwork.pgwStandard.pppInterface.ppp 	droppedPkBitError:sum(packetBytes) 	0
attr interpolationmode  none
attr source  dropPkBitError
attr title  "packets dropped/bit error, sum(packetBytes)"
scalar lteCoreNetwork.pgwStandard.pppInterface.ppp 	rxPkOk:count 	0
attr interpolationmode  none
attr source  rxPkOk
attr title  "packets received OK, count"
scalar lteCoreNetwork.pgwStandard.pppInterface.ppp 	rxPkOk:sum(packetBytes) 	0
attr interpolationmode  none
attr source  rxPkOk
attr title  "packets received OK, sum(packetBytes)"
scalar lteCoreNetwork.pgwStandard.pppInterface.ppp 	txPk:count 	0
attr interpolationmode  none
attr source  packetSentToLower
attr title  "packets transmitted, count"
scalar lteCoreNetwork.pgwStandard.pppInterface.ppp 	txPk:sum(packetBytes) 	0
attr interpolationmode  none
attr source  packetSentToLower
attr title  "packets transmitted, sum(packetBytes)"
scalar lteCoreNetwork.pgwStandard.pppInterface.ppp 	txState:timeavg 	0
attr interpolationmode  sample-hold
attr title  "tx state, timeavg"
scalar lteCoreNetwork.pgwStandard.udp 	droppedPkBadChecksum:count 	0
attr interpolationmode  none
attr title  "packets dropped (checksum error), count"
scalar lteCoreNetwork.pgwStandard.udp 	droppedPkWrongPort:count 	0
attr interpolationmode  none
attr title  "packets dropped (wrong port), count"
scalar lteCoreNetwork.pgwStandard.udp 	passedUpPk:count 	56
attr interpolationmode  none
attr title  "packets passed up, count"
scalar lteCoreNetwork.pgwStandard.udp 	rcvdPk:count 	56
attr interpolationmode  none
attr source  rcvdPk
attr title  "packets received, count"
scalar lteCoreNetwork.pgwStandard.udp 	rcvdPk:sum(packetBytes) 	4704
attr interpolationmode  none
attr source  rcvdPk
attr title  "packets received, sum(packetBytes)"
scalar lteCoreNetwork.pgwStandard.udp 	sentPk:count 	56
attr interpolationmode  none
attr source  sentPk
attr title  "packets sent, count"
scalar lteCoreNetwork.pgwStandard.udp 	sentPk:sum(packetBytes) 	4704
attr interpolationmode  none
attr source  sentPk
attr title  "packets sent, sum(packetBytes)"
scalar lteCoreNetwork.eNB3.networkLayer.arp 	failedResolution:count 	0
attr title  "ARP failed resolutions, count"
scalar lteCoreNetwork.eNB3.networkLayer.arp 	initiatedResolution:count 	0
attr title  "ARP initiated resolutions, count"
scalar lteCoreNetwork.eNB3.networkLayer.arp 	sentReplies:count 	0
attr title  "ARP replies sent, count"
scalar lteCoreNetwork.eNB3.networkLayer.arp 	sentReq:count 	0
attr title  "ARP request sent, count"
scalar lteCoreNetwork.eNB3.ppp[0].queue 	queueLength:max 	0
attr interpolationmode  sample-hold
attr title  "queue length, max"
scalar lteCoreNetwork.eNB3.ppp[0].queue 	queueLength:timeavg 	0
attr interpolationmode  sample-hold
attr title  "queue length, timeavg"
statistic lteCoreNetwork.eNB3.ppp[0].queue 	queueingTime:histogram
field count 14
field mean 0
field stddev 0
field sum 0
field sqrsum 0
field min 0
field max 0
attr interpolationmode  none
attr title  "queueing time, histogram"
bin	-INF	0
bin	-0.5	0
bin	-0.46666666666667	0
bin	-0.43333333333333	0
bin	-0.4	0
bin	-0.36666666666667	0
bin	-0.33333333333333	0
bin	-0.3	0
bin	-0.26666666666667	0
bin	-0.23333333333333	0
bin	-0.2	0
bin	-0.16666666666667	0
bin	-0.13333333333333	0
bin	-0.1	0
bin	-0.066666666666667	0
bin	-0.033333333333333	0
bin	-6.9388939039072e-18	14
bin	0.033333333333333	0
bin	0.066666666666667	0
bin	0.1	0
bin	0.13333333333333	0
bin	0.16666666666667	0
bin	0.2	0
bin	0.23333333333333	0
bin	0.26666666666667	0
bin	0.3	0
bin	0.33333333333333	0
bin	0.36666666666667	0
bin	0.4	0
bin	0.43333333333333	0
bin	0.46666666666667	0
bin	0.5	0
scalar lteCoreNetwork.eNB3.ppp[0].queue 	dropPk:count 	0
attr interpolationmode  none
attr source  dropPkByQueue
attr title  "dropped packets, count"
scalar lteCoreNetwork.eNB3.ppp[0].queue 	dropPk:sum(packetBytes) 	0
attr interpolationmode  none
attr source  dropPkByQueue
attr title  "dropped packets, sum(packetBytes)"
scalar lteCoreNetwork.eNB3.ppp[0].queue 	rcvdPk:count 	14
attr interpolationmode  none
attr title  "received packets, count"
scalar lteCoreNetwork.eNB3.ppp[0].queue 	rcvdPk:sum(packetBytes) 	1456
attr interpolationmode  none
attr title  "received packets, sum(packetBytes)"
scalar lteCoreNetwork.eNB3.ppp[0].ppp 	passedUpPk:count 	14
attr interpolationmode  none
attr source  packetSentToUpper
attr title  "packets passed to higher layer, count"
scalar lteCoreNetwork.eNB3.ppp[0].ppp 	passedUpPk:sum(packetBytes) 	1456
attr interpolationmode  none
attr source  packetSentToUpper
attr title  "packets passed to higher layer, sum(packetBytes)"
scalar lteCoreNetwork.eNB3.ppp[0].ppp 	rcvdPkFromHL:count 	14
attr interpolationmode  none
attr source  packetReceivedFromUpper
attr title  "packets received from higher layer, count"
scalar lteCoreNetwork.eNB3.ppp[0].ppp 	rcvdPkFromHL:sum(packetBytes) 	1456
attr interpolationmode  none
attr source  packetReceivedFromUpper
attr title  "packets received from higher layer, sum(packetBytes)"
scalar lteCoreNetwork.eNB3.ppp[0].ppp 	droppedPkIfaceDown:count 	0
attr interpolationmode  none
attr source  dropPkIfaceDown
attr title  "packets dropped/interface down, count"
scalar lteCoreNetwork.eNB3.ppp[0].ppp 	droppedPkIfaceDown:sum(packetBytes) 	0
attr interpolationmode  none
attr source  dropPkIfaceDown
attr title  "packets dropped/interface down, sum(packetBytes)"
scalar lteCoreNetwork.eNB3.ppp[0].ppp 	droppedPkBitError:count 	0
attr interpolationmode  none
attr source  dropPkBitError
attr title  "packets dropped/bit error, count"
scalar lteCoreNetwork.eNB3.ppp[0].ppp 	droppedPkBitError:sum(packetBytes) 	0
attr interpolationmode  none
attr source  dropPkBitError
attr title  "packets dropped/bit error, sum(packetBytes)"
scalar lteCoreNetwork.eNB3.ppp[0].ppp 	rxPkOk:count 	14
attr interpolationmode  none
attr source  rxPkOk
attr title  "packets received OK, count"
scalar lteCoreNetwork.eNB3.ppp[0].ppp 	rxPkOk:sum(packetBytes) 	1554
attr interpolationmode  none
attr source  rxPkOk
attr title  "packets received OK, sum(packetBytes)"
scalar lteCoreNetwork.eNB3.ppp[0].ppp 	txPk:count 	14
attr interpolationmode  none
attr source  packetSentToLower
attr title  "packets transmitted, count"
scalar lteCoreNetwork.eNB3.ppp[0].ppp 	txPk:sum(packetBytes) 	1554
attr interpolationmode  none
attr source  packetSentToLower
attr title  "packets transmitted, sum(packetBytes)"
scalar lteCoreNetwork.eNB3.ppp[0].ppp 	txState:timeavg 	0.00016354261508535
attr interpolationmode  sample-hold
attr title  "tx state, timeavg"
scalar lteCoreNetwork.eNB3.pppInterface.queue 	queueLength:max 	0
attr interpolationmode  sample-hold
attr title  "queue length, max"
scalar lteCoreNetwork.eNB3.pppInterface.queue 	queueLength:timeavg 	0
attr interpolationmode  sample-hold
attr title  "queue length, timeavg"
statistic lteCoreNetwork.eNB3.pppInterface.queue 	queueingTime:histogram
field count 14
field mean 0
field stddev 0
field sum 0
field sqrsum 0
field min 0
field max 0
attr interpolationmode  none
attr title  "queueing time, histogram"
bin	-INF	0
bin	-0.5	0
bin	-0.46666666666667	0
bin	-0.43333333333333	0
bin	-0.4	0
bin	-0.36666666666667	0
bin	-0.33333333333333	0
bin	-0.3	0
bin	-0.26666666666667	0
bin	-0.23333333333333	0
bin	-0.2	0
bin	-0.16666666666667	0
bin	-0.13333333333333	0
bin	-0.1	0
bin	-0.066666666666667	0
bin	-0.033333333333333	0
bin	-6.9388939039072e-18	14
bin	0.033333333333333	0
bin	0.066666666666667	0
bin	0.1	0
bin	0.13333333333333	0
bin	0.16666666666667	0
bin	0.2	0
bin	0.23333333333333	0
bin	0.26666666666667	0
bin	0.3	0
bin	0.33333333333333	0
bin	0.36666666666667	0
bin	0.4	0
bin	0.43333333333333	0
bin	0.46666666666667	0
bin	0.5	0
scalar lteCoreNetwork.eNB3.pppInterface.queue 	dropPk:count 	0
attr interpolationmode  none
attr source  dropPkByQueue
attr title  "dropped packets, count"
scalar lteCoreNetwork.eNB3.pppInterface.queue 	dropPk:sum(packetBytes) 	0
attr interpolationmode  none
attr source  dropPkByQueue
attr title  "dropped packets, sum(packetBytes)"
scalar lteCoreNetwork.eNB3.pppInterface.queue 	rcvdPk:count 	14
attr interpolationmode  none
attr title  "received packets, count"
scalar lteCoreNetwork.eNB3.pppInterface.queue 	rcvdPk:sum(packetBytes) 	1064
attr interpolationmode  none
attr title  "received packets, sum(packetBytes)"
scalar lteCoreNetwork.eNB3.pppInterface.ppp 	passedUpPk:count 	14
attr interpolationmode  none
attr source  packetSentToUpper
attr title  "packets passed to higher layer, count"
scalar lteCoreNetwork.eNB3.pppInterface.ppp 	passedUpPk:sum(packetBytes) 	1064
attr interpolationmode  none
attr source  packetSentToUpper
attr title  "packets passed to higher layer, sum(packetBytes)"
scalar lteCoreNetwork.eNB3.pppInterface.ppp 	rcvdPkFromHL:count 	14
attr interpolationmode  none
attr source  packetReceivedFromUpper
attr title  "packets received from higher layer, count"
scalar lteCoreNetwork.eNB3.pppInterface.ppp 	rcvdPkFromHL:sum(packetBytes) 	1064
attr interpolationmode  none
attr source  packetReceivedFromUpper
attr title  "packets received from higher layer, sum(packetBytes)"
scalar lteCoreNetwork.eNB3.pppInterface.ppp 	droppedPkIfaceDown:count 	0
attr interpolationmode  none
attr source  dropPkIfaceDown
attr title  "packets dropped/interface down, count"
scalar lteCoreNetwork.eNB3.pppInterface.ppp 	droppedPkIfaceDown:sum(packetBytes) 	0
attr interpolationmode  none
attr source  dropPkIfaceDown
attr title  "packets dropped/interface down, sum(packetBytes)"
scalar lteCoreNetwork.eNB3.pppInterface.ppp 	droppedPkBitError:count 	0
attr interpolationmode  none
attr source  dropPkBitError
attr title  "packets dropped/bit error, count"
scalar lteCoreNetwork.eNB3.pppInterface.ppp 	droppedPkBitError:sum(packetBytes) 	0
attr interpolationmode  none
attr source  dropPkBitError
attr title  "packets dropped/bit error, sum(packetBytes)"
scalar lteCoreNetwork.eNB3.pppInterface.ppp 	rxPkOk:count 	14
attr interpolationmode  none
attr source  rxPkOk
attr title  "packets received OK, count"
scalar lteCoreNetwork.eNB3.pppInterface.ppp 	rxPkOk:sum(packetBytes) 	1162
attr interpolationmode  none
attr source  rxPkOk
attr title  "packets received OK, sum(packetBytes)"
scalar lteCoreNetwork.eNB3.pppInterface.ppp 	txPk:count 	14
attr interpolationmode  none
attr source  packetSentToLower
attr title  "packets transmitted, count"
scalar lteCoreNetwork.eNB3.pppInterface.ppp 	txPk:sum(packetBytes) 	1162
attr interpolationmode  none
attr source  packetSentToLower
attr title  "packets transmitted, sum(packetBytes)"
scalar lteCoreNetwork.eNB3.pppInterface.ppp 	txState:timeavg 	0.00012228862209085
attr interpolationmode  sample-hold
attr title  "tx state, timeavg"
scalar lteCoreNetwork.eNB3.udp 	droppedPkBadChecksum:count 	0
attr interpolationmode  none
attr title  "packets dropped (checksum error), count"
scalar lteCoreNetwork.eNB3.udp 	droppedPkWrongPort:count 	0
attr interpolationmode  none
attr title  "packets dropped (wrong port), count"
scalar lteCoreNetwork.eNB3.udp 	passedUpPk:count 	14
attr interpolationmode  none
attr title  "packets passed up, count"
scalar lteCoreNetwork.eNB3.udp 	rcvdPk:count 	14
attr interpolationmode  none
attr source  rcvdPk
attr title  "packets received, count"
scalar lteCoreNetwork.eNB3.udp 	rcvdPk:sum(packetBytes) 	1176
attr interpolationmode  none
attr source  rcvdPk
attr title  "packets received, sum(packetBytes)"
scalar lteCoreNetwork.eNB3.udp 	sentPk:count 	14
attr interpolationmode  none
attr source  sentPk
attr title  "packets sent, count"
scalar lteCoreNetwork.eNB3.udp 	sentPk:sum(packetBytes) 	1176
attr interpolationmode  none
attr source  sentPk
attr title  "packets sent, sum(packetBytes)"
scalar lteCoreNetwork.eNB1.networkLayer.arp 	failedResolution:count 	0
attr title  "ARP failed resolutions, count"
scalar lteCoreNetwork.eNB1.networkLayer.arp 	initiatedResolution:count 	0
attr title  "ARP initiated resolutions, count"
scalar lteCoreNetwork.eNB1.networkLayer.arp 	sentReplies:count 	0
attr title  "ARP replies sent, count"
scalar lteCoreNetwork.eNB1.networkLayer.arp 	sentReq:count 	0
attr title  "ARP request sent, count"
scalar lteCoreNetwork.eNB1.ppp[0].queue 	queueLength:max 	0
attr interpolationmode  sample-hold
attr title  "queue length, max"
scalar lteCoreNetwork.eNB1.ppp[0].queue 	queueLength:timeavg 	0
attr interpolationmode  sample-hold
attr title  "queue length, timeavg"
statistic lteCoreNetwork.eNB1.ppp[0].queue 	queueingTime:histogram
field count 28
field mean 0
field stddev 0
field sum 0
field sqrsum 0
field min 0
field max 0
attr interpolationmode  none
attr title  "queueing time, histogram"
bin	-INF	0
bin	-0.5	0
bin	-0.46666666666667	0
bin	-0.43333333333333	0
bin	-0.4	0
bin	-0.36666666666667	0
bin	-0.33333333333333	0
bin	-0.3	0
bin	-0.26666666666667	0
bin	-0.23333333333333	0
bin	-0.2	0
bin	-0.16666666666667	0
bin	-0.13333333333333	0
bin	-0.1	0
bin	-0.066666666666667	0
bin	-0.033333333333333	0
bin	-6.9388939039072e-18	28
bin	0.033333333333333	0
bin	0.066666666666667	0
bin	0.1	0
bin	0.13333333333333	0
bin	0.16666666666667	0
bin	0.2	0
bin	0.23333333333333	0
bin	0.26666666666667	0
bin	0.3	0
bin	0.33333333333333	0
bin	0.36666666666667	0
bin	0.4	0
bin	0.43333333333333	0
bin	0.46666666666667	0
bin	0.5	0
scalar lteCoreNetwork.eNB1.ppp[0].queue 	dropPk:count 	0
attr interpolationmode  none
attr source  dropPkByQueue
attr title  "dropped packets, count"
scalar lteCoreNetwork.eNB1.ppp[0].queue 	dropPk:sum(packetBytes) 	0
attr interpolationmode  none
attr source  dropPkByQueue
attr title  "dropped packets, sum(packetBytes)"
scalar lteCoreNetwork.eNB1.ppp[0].queue 	rcvdPk:count 	28
attr interpolationmode  none
attr title  "received packets, count"
scalar lteCoreNetwork.eNB1.ppp[0].queue 	rcvdPk:sum(packetBytes) 	2912
attr interpolationmode  none
attr title  "received packets, sum(packetBytes)"
scalar lteCoreNetwork.eNB1.ppp[0].ppp 	passedUpPk:count 	28
attr interpolationmode  none
attr source  packetSentToUpper
attr title  "packets passed to higher layer, count"
scalar lteCoreNetwork.eNB1.ppp[0].ppp 	passedUpPk:sum(packetBytes) 	2912
attr interpolationmode  none
attr source  packetSentToUpper
attr title  "packets passed to higher layer, sum(packetBytes)"
scalar lteCoreNetwork.eNB1.ppp[0].ppp 	rcvdPkFromHL:count 	28
attr interpolationmode  none
attr source  packetReceivedFromUpper
attr title  "packets received from higher layer, count"
scalar lteCoreNetwork.eNB1.ppp[0].ppp 	rcvdPkFromHL:sum(packetBytes) 	2912
attr interpolationmode  none
attr source  packetReceivedFromUpper
attr title  "packets received from higher layer, sum(packetBytes)"
scalar lteCoreNetwork.eNB1.ppp[0].ppp 	droppedPkIfaceDown:count 	0
attr interpolationmode  none
attr source  dropPkIfaceDown
attr title  "packets dropped/interface down, count"
scalar lteCoreNetwork.eNB1.ppp[0].ppp 	droppedPkIfaceDown:sum(packetBytes) 	0
attr interpolationmode  none
attr source  dropPkIfaceDown
attr title  "packets dropped/interface down, sum(packetBytes)"
scalar lteCoreNetwork.eNB1.ppp[0].ppp 	droppedPkBitError:count 	0
attr interpolationmode  none
attr source  dropPkBitError
attr title  "packets dropped/bit error, count"
scalar lteCoreNetwork.eNB1.ppp[0].ppp 	droppedPkBitError:sum(packetBytes) 	0
attr interpolationmode  none
attr source  dropPkBitError
attr title  "packets dropped/bit error, sum(packetBytes)"
scalar lteCoreNetwork.eNB1.ppp[0].ppp 	rxPkOk:count 	28
attr interpolationmode  none
attr source  rxPkOk
attr title  "packets received OK, count"
scalar lteCoreNetwork.eNB1.ppp[0].ppp 	rxPkOk:sum(packetBytes) 	3108
attr interpolationmode  none
attr source  rxPkOk
attr title  "packets received OK, sum(packetBytes)"
scalar lteCoreNetwork.eNB1.ppp[0].ppp 	txPk:count 	28
attr interpolationmode  none
attr source  packetSentToLower
attr title  "packets transmitted, count"
scalar lteCoreNetwork.eNB1.ppp[0].ppp 	txPk:sum(packetBytes) 	3108
attr interpolationmode  none
attr source  packetSentToLower
attr title  "packets transmitted, sum(packetBytes)"
scalar lteCoreNetwork.eNB1.ppp[0].ppp 	txState:timeavg 	0.00032708523017071
attr interpolationmode  sample-hold
attr title  "tx state, timeavg"
scalar lteCoreNetwork.eNB1.pppInterface.queue 	queueLength:max 	0
attr interpolationmode  sample-hold
attr title  "queue length, max"
scalar lteCoreNetwork.eNB1.pppInterface.queue 	queueLength:timeavg 	0
attr interpolationmode  sample-hold
attr title  "queue length, timeavg"
statistic lteCoreNetwork.eNB1.pppInterface.queue 	queueingTime:histogram
field count 28
field mean 0
field stddev 0
field sum 0
field sqrsum 0
field min 0
field max 0
attr interpolationmode  none
attr title  "queueing time, histogram"
bin	-INF	0
bin	-0.5	0
bin	-0.46666666666667	0
bin	-0.43333333333333	0
bin	-0.4	0
bin	-0.36666666666667	0
bin	-0.33333333333333	0
bin	-0.3	0
bin	-0.26666666666667	0
bin	-0.23333333333333	0
bin	-0.2	0
bin	-0.16666666666667	0
bin	-0.13333333333333	0
bin	-0.1	0
bin	-0.066666666666667	0
bin	-0.033333333333333	0
bin	-6.9388939039072e-18	28
bin	0.033333333333333	0
bin	0.066666666666667	0
bin	0.1	0
bin	0.13333333333333	0
bin	0.16666666666667	0
bin	0.2	0
bin	0.23333333333333	0
bin	0.26666666666667	0
bin	0.3	0
bin	0.33333333333333	0
bin	0.36666666666667	0
bin	0.4	0
bin	0.43333333333333	0
bin	0.46666666666667	0
bin	0.5	0
scalar lteCoreNetwork.eNB1.pppInterface.queue 	dropPk:count 	0
attr interpolationmode  none
attr source  dropPkByQueue
attr title  "dropped packets, count"
scalar lteCoreNetwork.eNB1.pppInterface.queue 	dropPk:sum(packetBytes) 	0
attr interpolationmode  none
attr source  dropPkByQueue
attr title  "dropped packets, sum(packetBytes)"
scalar lteCoreNetwork.eNB1.pppInterface.queue 	rcvdPk:count 	28
attr interpolationmode  none
attr title  "received packets, count"
scalar lteCoreNetwork.eNB1.pppInterface.queue 	rcvdPk:sum(packetBytes) 	2128
attr interpolationmode  none
attr title  "received packets, sum(packetBytes)"
scalar lteCoreNetwork.eNB1.pppInterface.ppp 	passedUpPk:count 	28
attr interpolationmode  none
attr source  packetSentToUpper
attr title  "packets passed to higher layer, count"
scalar lteCoreNetwork.eNB1.pppInterface.ppp 	passedUpPk:sum(packetBytes) 	2128
attr interpolationmode  none
attr source  packetSentToUpper
attr title  "packets passed to higher layer, sum(packetBytes)"
scalar lteCoreNetwork.eNB1.pppInterface.ppp 	rcvdPkFromHL:count 	28
attr interpolationmode  none
attr source  packetReceivedFromUpper
attr title  "packets received from higher layer, count"
scalar lteCoreNetwork.eNB1.pppInterface.ppp 	rcvdPkFromHL:sum(packetBytes) 	2128
attr interpolationmode  none
attr source  packetReceivedFromUpper
attr title  "packets received from higher layer, sum(packetBytes)"
scalar lteCoreNetwork.eNB1.pppInterface.ppp 	droppedPkIfaceDown:count 	0
attr interpolationmode  none
attr source  dropPkIfaceDown
attr title  "packets dropped/interface down, count"
scalar lteCoreNetwork.eNB1.pppInterface.ppp 	droppedPkIfaceDown:sum(packetBytes) 	0
attr interpolationmode  none
attr source  dropPkIfaceDown
attr title  "packets dropped/interface down, sum(packetBytes)"
scalar lteCoreNetwork.eNB1.pppInterface.ppp 	droppedPkBitError:count 	0
attr interpolationmode  none
attr source  dropPkBitError
attr title  "packets dropped/bit error, count"
scalar lteCoreNetwork.eNB1.pppInterface.ppp 	droppedPkBitError:sum(packetBytes) 	0
attr interpolationmode  none
attr source  dropPkBitError
attr title  "packets dropped/bit error, sum(packetBytes)"
scalar lteCoreNetwork.eNB1.pppInterface.ppp 	rxPkOk:count 	28
attr interpolationmode  none
attr source  rxPkOk
attr title  "packets received OK, count"
scalar lteCoreNetwork.eNB1.pppInterface.ppp 	rxPkOk:sum(packetBytes) 	2324
attr interpolationmode  none
attr source  rxPkOk
attr title  "packets received OK, sum(packetBytes)"
scalar lteCoreNetwork.eNB1.pppInterface.ppp 	txPk:count 	28
attr interpolationmode  none
attr source  packetSentToLower
attr title  "packets transmitted, count"
scalar lteCoreNetwork.eNB1.pppInterface.ppp 	txPk:sum(packetBytes) 	2324
attr interpolationmode  none
attr source  packetSentToLower
attr title  "packets transmitted, sum(packetBytes)"
scalar lteCoreNetwork.eNB1.pppInterface.ppp 	txState:timeavg 	0.0002445772441817
attr interpolationmode  sample-hold
attr title  "tx state, timeavg"
scalar lteCoreNetwork.eNB1.udp 	droppedPkBadChecksum:count 	0
attr interpolationmode  none
attr title  "packets dropped (checksum error), count"
scalar lteCoreNetwork.eNB1.udp 	droppedPkWrongPort:count 	0
attr interpolationmode  none
attr title  "packets dropped (wrong port), count"
scalar lteCoreNetwork.eNB1.udp 	passedUpPk:count 	28
attr interpolationmode  none
attr title  "packets passed up, count"
scalar lteCoreNetwork.eNB1.udp 	rcvdPk:count 	28
attr interpolationmode  none
attr source  rcvdPk
attr title  "packets received, count"
scalar lteCoreNetwork.eNB1.udp 	rcvdPk:sum(packetBytes) 	2352
attr interpolationmode  none
attr source  rcvdPk
attr title  "packets received, sum(packetBytes)"
scalar lteCoreNetwork.eNB1.udp 	sentPk:count 	28
attr interpolationmode  none
attr source  sentPk
attr title  "packets sent, count"
scalar lteCoreNetwork.eNB1.udp 	sentPk:sum(packetBytes) 	2352
attr interpolationmode  none
attr source  sentPk
attr title  "packets sent, sum(packetBytes)"
scalar lteCoreNetwork.eNB2.networkLayer.arp 	failedResolution:count 	0
attr title  "ARP failed resolutions, count"
scalar lteCoreNetwork.eNB2.networkLayer.arp 	initiatedResolution:count 	0
attr title  "ARP initiated resolutions, count"
scalar lteCoreNetwork.eNB2.networkLayer.arp 	sentReplies:count 	0
attr title  "ARP replies sent, count"
scalar lteCoreNetwork.eNB2.networkLayer.arp 	sentReq:count 	0
attr title  "ARP request sent, count"
scalar lteCoreNetwork.eNB2.ppp[0].queue 	queueLength:max 	0
attr interpolationmode  sample-hold
attr title  "queue length, max"
scalar lteCoreNetwork.eNB2.ppp[0].queue 	queueLength:timeavg 	0
attr interpolationmode  sample-hold
attr title  "queue length, timeavg"
statistic lteCoreNetwork.eNB2.ppp[0].queue 	queueingTime:histogram
field count 14
field mean 0
field stddev 0
field sum 0
field sqrsum 0
field min 0
field max 0
attr interpolationmode  none
attr title  "queueing time, histogram"
bin	-INF	0
bin	-0.5	0
bin	-0.46666666666667	0
bin	-0.43333333333333	0
bin	-0.4	0
bin	-0.36666666666667	0
bin	-0.33333333333333	0
bin	-0.3	0
bin	-0.26666666666667	0
bin	-0.23333333333333	0
bin	-0.2	0
bin	-0.16666666666667	0
bin	-0.13333333333333	0
bin	-0.1	0
bin	-0.066666666666667	0
bin	-0.033333333333333	0
bin	-6.9388939039072e-18	14
bin	0.033333333333333	0
bin	0.066666666666667	0
bin	0.1	0
bin	0.13333333333333	0
bin	0.16666666666667	0
bin	0.2	0
bin	0.23333333333333	0
bin	0.26666666666667	0
bin	0.3	0
bin	0.33333333333333	0
bin	0.36666666666667	0
bin	0.4	0
bin	0.43333333333333	0
bin	0.46666666666667	0
bin	0.5	0
scalar lteCoreNetwork.eNB2.ppp[0].queue 	dropPk:count 	0
attr interpolationmode  none
attr source  dropPkByQueue
attr title  "dropped packets, count"
scalar lteCoreNetwork.eNB2.ppp[0].queue 	dropPk:sum(packetBytes) 	0
attr interpolationmode  none
attr source  dropPkByQueue
attr title  "dropped packets, sum(packetBytes)"
scalar lteCoreNetwork.eNB2.ppp[0].queue 	rcvdPk:count 	14
attr interpolationmode  none
attr title  "received packets, count"
scalar lteCoreNetwork.eNB2.ppp[0].queue 	rcvdPk:sum(packetBytes) 	1456
attr interpolationmode  none
attr title  "received packets, sum(packetBytes)"
scalar lteCoreNetwork.eNB2.ppp[0].ppp 	passedUpPk:count 	14
attr interpolationmode  none
attr source  packetSentToUpper
attr title  "packets passed to higher layer, count"
scalar lteCoreNetwork.eNB2.ppp[0].ppp 	passedUpPk:sum(packetBytes) 	1456
attr interpolationmode  none
attr source  packetSentToUpper
attr title  "packets passed to higher layer, sum(packetBytes)"
scalar lteCoreNetwork.eNB2.ppp[0].ppp 	rcvdPkFromHL:count 	14
attr interpolationmode  none
attr source  packetReceivedFromUpper
attr title  "packets received from higher layer, count"
scalar lteCoreNetwork.eNB2.ppp[0].ppp 	rcvdPkFromHL:sum(packetBytes) 	1456
attr interpolationmode  none
attr source  packetReceivedFromUpper
attr title  "packets received from higher layer, sum(packetBytes)"
scalar lteCoreNetwork.eNB2.ppp[0].ppp 	droppedPkIfaceDown:count 	0
attr interpolationmode  none
attr source  dropPkIfaceDown
attr title  "packets dropped/interface down, count"
scalar lteCoreNetwork.eNB2.ppp[0].ppp 	droppedPkIfaceDown:sum(packetBytes) 	0
attr interpolationmode  none
attr source  dropPkIfaceDown
attr title  "packets dropped/interface down, sum(packetBytes)"
scalar lteCoreNetwork.eNB2.ppp[0].ppp 	droppedPkBitError:count 	0
attr interpolationmode  none
attr source  dropPkBitError
attr title  "packets dropped/bit error, count"
scalar lteCoreNetwork.eNB2.ppp[0].ppp 	droppedPkBitError:sum(packetBytes) 	0
attr interpolationmode  none
attr source  dropPkBitError
attr title  "packets dropped/bit error, sum(packetBytes)"
scalar lteCoreNetwork.eNB2.ppp[0].ppp 	rxPkOk:count 	14
attr interpolationmode  none
attr source  rxPkOk
attr title  "packets received OK, count"
scalar lteCoreNetwork.eNB2.ppp[0].ppp 	rxPkOk:sum(packetBytes) 	1554
attr interpolationmode  none
attr source  rxPkOk
attr title  "packets received OK, sum(packetBytes)"
scalar lteCoreNetwork.eNB2.ppp[0].ppp 	txPk:count 	14
attr interpolationmode  none
attr source  packetSentToLower
attr title  "packets transmitted, count"
scalar lteCoreNetwork.eNB2.ppp[0].ppp 	txPk:sum(packetBytes) 	1554
attr interpolationmode  none
attr source  packetSentToLower
attr title  "packets transmitted, sum(packetBytes)"
scalar lteCoreNetwork.eNB2.ppp[0].ppp 	txState:timeavg 	0.00016354261508535
attr interpolationmode  sample-hold
attr title  "tx state, timeavg"
scalar lteCoreNetwork.eNB2.pppInterface.queue 	queueLength:max 	0
attr interpolationmode  sample-hold
attr title  "queue length, max"
scalar lteCoreNetwork.eNB2.pppInterface.queue 	queueLength:timeavg 	0
attr interpolationmode  sample-hold
attr title  "queue length, timeavg"
statistic lteCoreNetwork.eNB2.pppInterface.queue 	queueingTime:histogram
field count 14
field mean 0
field stddev 0
field sum 0
field sqrsum 0
field min 0
field max 0
attr interpolationmode  none
attr title  "queueing time, histogram"
bin	-INF	0
bin	-0.5	0
bin	-0.46666666666667	0
bin	-0.43333333333333	0
bin	-0.4	0
bin	-0.36666666666667	0
bin	-0.33333333333333	0
bin	-0.3	0
bin	-0.26666666666667	0
bin	-0.23333333333333	0
bin	-0.2	0
bin	-0.16666666666667	0
bin	-0.13333333333333	0
bin	-0.1	0
bin	-0.066666666666667	0
bin	-0.033333333333333	0
bin	-6.9388939039072e-18	14
bin	0.033333333333333	0
bin	0.066666666666667	0
bin	0.1	0
bin	0.13333333333333	0
bin	0.16666666666667	0
bin	0.2	0
bin	0.23333333333333	0
bin	0.26666666666667	0
bin	0.3	0
bin	0.33333333333333	0
bin	0.36666666666667	0
bin	0.4	0
bin	0.43333333333333	0
bin	0.46666666666667	0
bin	0.5	0
scalar lteCoreNetwork.eNB2.pppInterface.queue 	dropPk:count 	0
attr interpolationmode  none
attr source  dropPkByQueue
attr title  "dropped packets, count"
scalar lteCoreNetwork.eNB2.pppInterface.queue 	dropPk:sum(packetBytes) 	0
attr interpolationmode  none
attr source  dropPkByQueue
attr title  "dropped packets, sum(packetBytes)"
scalar lteCoreNetwork.eNB2.pppInterface.queue 	rcvdPk:count 	14
attr interpolationmode  none
attr title  "received packets, count"
scalar lteCoreNetwork.eNB2.pppInterface.queue 	rcvdPk:sum(packetBytes) 	1064
attr interpolationmode  none
attr title  "received packets, sum(packetBytes)"
scalar lteCoreNetwork.eNB2.pppInterface.ppp 	passedUpPk:count 	14
attr interpolationmode  none
attr source  packetSentToUpper
attr title  "packets passed to higher layer, count"
scalar lteCoreNetwork.eNB2.pppInterface.ppp 	passedUpPk:sum(packetBytes) 	1064
attr interpolationmode  none
attr source  packetSentToUpper
attr title  "packets passed to higher layer, sum(packetBytes)"
scalar lteCoreNetwork.eNB2.pppInterface.ppp 	rcvdPkFromHL:count 	14
attr interpolationmode  none
attr source  packetReceivedFromUpper
attr title  "packets received from higher layer, count"
scalar lteCoreNetwork.eNB2.pppInterface.ppp 	rcvdPkFromHL:sum(packetBytes) 	1064
attr interpolationmode  none
attr source  packetReceivedFromUpper
attr title  "packets received from higher layer, sum(packetBytes)"
scalar lteCoreNetwork.eNB2.pppInterface.ppp 	droppedPkIfaceDown:count 	0
attr interpolationmode  none
attr source  dropPkIfaceDown
attr title  "packets dropped/interface down, count"
scalar lteCoreNetwork.eNB2.pppInterface.ppp 	droppedPkIfaceDown:sum(packetBytes) 	0
attr interpolationmode  none
attr source  dropPkIfaceDown
attr title  "packets dropped/interface down, sum(packetBytes)"
scalar lteCoreNetwork.eNB2.pppInterface.ppp 	droppedPkBitError:count 	0
attr interpolationmode  none
attr source  dropPkBitError
attr title  "packets dropped/bit error, count"
scalar lteCoreNetwork.eNB2.pppInterface.ppp 	droppedPkBitError:sum(packetBytes) 	0
attr interpolationmode  none
attr source  dropPkBitError
attr title  "packets dropped/bit error, sum(packetBytes)"
scalar lteCoreNetwork.eNB2.pppInterface.ppp 	rxPkOk:count 	14
attr interpolationmode  none
attr source  rxPkOk
attr title  "packets received OK, count"
scalar lteCoreNetwork.eNB2.pppInterface.ppp 	rxPkOk:sum(packetBytes) 	1162
attr interpolationmode  none
attr source  rxPkOk
attr title  "packets received OK, sum(packetBytes)"
scalar lteCoreNetwork.eNB2.pppInterface.ppp 	txPk:count 	14
attr interpolationmode  none
attr source  packetSentToLower
attr title  "packets transmitted, count"
scalar lteCoreNetwork.eNB2.pppInterface.ppp 	txPk:sum(packetBytes) 	1162
attr interpolationmode  none
attr source  packetSentToLower
attr title  "packets transmitted, sum(packetBytes)"
scalar lteCoreNetwork.eNB2.pppInterface.ppp 	txState:timeavg 	0.00012228862209085
attr interpolationmode  sample-hold
attr title  "tx state, timeavg"
scalar lteCoreNetwork.eNB2.udp 	droppedPkBadChecksum:count 	0
attr interpolationmode  none
attr title  "packets dropped (checksum error), count"
scalar lteCoreNetwork.eNB2.udp 	droppedPkWrongPort:count 	0
attr interpolationmode  none
attr title  "packets dropped (wrong port), count"
scalar lteCoreNetwork.eNB2.udp 	passedUpPk:count 	14
attr interpolationmode  none
attr title  "packets passed up, count"
scalar lteCoreNetwork.eNB2.udp 	rcvdPk:count 	14
attr interpolationmode  none
attr source  rcvdPk
attr title  "packets received, count"
scalar lteCoreNetwork.eNB2.udp 	rcvdPk:sum(packetBytes) 	1176
attr interpolationmode  none
attr source  rcvdPk
attr title  "packets received, sum(packetBytes)"
scalar lteCoreNetwork.eNB2.udp 	sentPk:count 	14
attr interpolationmode  none
attr source  sentPk
attr title  "packets sent, count"
scalar lteCoreNetwork.eNB2.udp 	sentPk:sum(packetBytes) 	1176
attr interpolationmode  none
attr source  sentPk
attr title  "packets sent, sum(packetBytes)"
scalar lteCoreNetwork.sgwStandard2.networkLayer.arp 	failedResolution:count 	0
attr title  "ARP failed resolutions, count"
scalar lteCoreNetwork.sgwStandard2.networkLayer.arp 	initiatedResolution:count 	0
attr title  "ARP initiated resolutions, count"
scalar lteCoreNetwork.sgwStandard2.networkLayer.arp 	sentReplies:count 	0
attr title  "ARP replies sent, count"
scalar lteCoreNetwork.sgwStandard2.networkLayer.arp 	sentReq:count 	0
attr title  "ARP request sent, count"
scalar lteCoreNetwork.sgwStandard2.ppp[0].queue 	queueLength:max 	0
attr interpolationmode  sample-hold
attr title  "queue length, max"
scalar lteCoreNetwork.sgwStandard2.ppp[0].queue 	queueLength:timeavg 	0
attr interpolationmode  sample-hold
attr title  "queue length, timeavg"
statistic lteCoreNetwork.sgwStandard2.ppp[0].queue 	queueingTime:histogram
field count 28
field mean 0
field stddev 0
field sum 0
field sqrsum 0
field min 0
field max 0
attr interpolationmode  none
attr title  "queueing time, histogram"
bin	-INF	0
bin	-0.5	0
bin	-0.46666666666667	0
bin	-0.43333333333333	0
bin	-0.4	0
bin	-0.36666666666667	0
bin	-0.33333333333333	0
bin	-0.3	0
bin	-0.26666666666667	0
bin	-0.23333333333333	0
bin	-0.2	0
bin	-0.16666666666667	0
bin	-0.13333333333333	0
bin	-0.1	0
bin	-0.066666666666667	0
bin	-0.033333333333333	0
bin	-6.9388939039072e-18	28
bin	0.033333333333333	0
bin	0.066666666666667	0
bin	0.1	0
bin	0.13333333333333	0
bin	0.16666666666667	0
bin	0.2	0
bin	0.23333333333333	0
bin	0.26666666666667	0
bin	0.3	0
bin	0.33333333333333	0
bin	0.36666666666667	0
bin	0.4	0
bin	0.43333333333333	0
bin	0.46666666666667	0
bin	0.5	0
scalar lteCoreNetwork.sgwStandard2.ppp[0].queue 	dropPk:count 	0
attr interpolationmode  none
attr source  dropPkByQueue
attr title  "dropped packets, count"
scalar lteCoreNetwork.sgwStandard2.ppp[0].queue 	dropPk:sum(packetBytes) 	0
attr interpolationmode  none
attr source  dropPkByQueue
attr title  "dropped packets, sum(packetBytes)"
scalar lteCoreNetwork.sgwStandard2.ppp[0].queue 	rcvdPk:count 	28
attr interpolationmode  none
attr title  "received packets, count"
scalar lteCoreNetwork.sgwStandard2.ppp[0].queue 	rcvdPk:sum(packetBytes) 	2912
attr interpolationmode  none
attr title  "received packets, sum(packetBytes)"
scalar lteCoreNetwork.sgwStandard2.ppp[0].ppp 	passedUpPk:count 	28
attr interpolationmode  none
attr source  packetSentToUpper
attr title  "packets passed to higher layer, count"
scalar lteCoreNetwork.sgwStandard2.ppp[0].ppp 	passedUpPk:sum(packetBytes) 	2912
attr interpolationmode  none
attr source  packetSentToUpper
attr title  "packets passed to higher layer, sum(packetBytes)"
scalar lteCoreNetwork.sgwStandard2.ppp[0].ppp 	rcvdPkFromHL:count 	28
attr interpolationmode  none
attr source  packetReceivedFromUpper
attr title  "packets received from higher layer, count"
scalar lteCoreNetwork.sgwStandard2.ppp[0].ppp 	rcvdPkFromHL:sum(packetBytes) 	2912
attr interpolationmode  none
attr source  packetReceivedFromUpper
attr title  "packets received from higher layer, sum(packetBytes)"
scalar lteCoreNetwork.sgwStandard2.ppp[0].ppp 	droppedPkIfaceDown:count 	0
attr interpolationmode  none
attr source  dropPkIfaceDown
attr title  "packets dropped/interface down, count"
scalar lteCoreNetwork.sgwStandard2.ppp[0].ppp 	droppedPkIfaceDown:sum(packetBytes) 	0
attr interpolationmode  none
attr source  dropPkIfaceDown
attr title  "packets dropped/interface down, sum(packetBytes)"
scalar lteCoreNetwork.sgwStandard2.ppp[0].ppp 	droppedPkBitError:count 	0
attr interpolationmode  none
attr source  dropPkBitError
attr title  "packets dropped/bit error, count"
scalar lteCoreNetwork.sgwStandard2.ppp[0].ppp 	droppedPkBitError:sum(packetBytes) 	0
attr interpolationmode  none
attr source  dropPkBitError
attr title  "packets dropped/bit error, sum(packetBytes)"
scalar lteCoreNetwork.sgwStandard2.ppp[0].ppp 	rxPkOk:count 	28
attr interpolationmode  none
attr source  rxPkOk
attr title  "packets received OK, count"
scalar lteCoreNetwork.sgwStandard2.ppp[0].ppp 	rxPkOk:sum(packetBytes) 	3108
attr interpolationmode  none
attr source  rxPkOk
attr title  "packets received OK, sum(packetBytes)"
scalar lteCoreNetwork.sgwStandard2.ppp[0].ppp 	txPk:count 	28
attr interpolationmode  none
attr source  packetSentToLower
attr title  "packets transmitted, count"
scalar lteCoreNetwork.sgwStandard2.ppp[0].ppp 	txPk:sum(packetBytes) 	3108
attr interpolationmode  none
attr source  packetSentToLower
attr title  "packets transmitted, sum(packetBytes)"
scalar lteCoreNetwork.sgwStandard2.ppp[0].ppp 	txState:timeavg 	0.00032708523017071
attr interpolationmode  sample-hold
attr title  "tx state, timeavg"
scalar lteCoreNetwork.sgwStandard2.ppp[1].queue 	queueLength:max 	0
attr interpolationmode  sample-hold
attr title  "queue length, max"
scalar lteCoreNetwork.sgwStandard2.ppp[1].queue 	queueLength:timeavg 	0
attr interpolationmode  sample-hold
attr title  "queue length, timeavg"
statistic lteCoreNetwork.sgwStandard2.ppp[1].queue 	queueingTime:histogram
field count 28
field mean 0
field stddev 0
field sum 0
field sqrsum 0
field min 0
field max 0
attr interpolationmode  none
attr title  "queueing time, histogram"
bin	-INF	0
bin	-0.5	0
bin	-0.46666666666667	0
bin	-0.43333333333333	0
bin	-0.4	0
bin	-0.36666666666667	0
bin	-0.33333333333333	0
bin	-0.3	0
bin	-0.26666666666667	0
bin	-0.23333333333333	0
bin	-0.2	0
bin	-0.16666666666667	0
bin	-0.13333333333333	0
bin	-0.1	0
bin	-0.066666666666667	0
bin	-0.033333333333333	0
bin	-6.9388939039072e-18	28
bin	0.033333333333333	0
bin	0.066666666666667	0
bin	0.1	0
bin	0.13333333333333	0
bin	0.16666666666667	0
bin	0.2	0
bin	0.23333333333333	0
bin	0.26666666666667	0
bin	0.3	0
bin	0.33333333333333	0
bin	0.36666666666667	0
bin	0.4	0
bin	0.43333333333333	0
bin	0.46666666666667	0
bin	0.5	0
scalar lteCoreNetwork.sgwStandard2.ppp[1].queue 	dropPk:count 	0
attr interpolationmode  none
attr source  dropPkByQueue
attr title  "dropped packets, count"
scalar lteCoreNetwork.sgwStandard2.ppp[1].queue 	dropPk:sum(packetBytes) 	0
attr interpolationmode  none
attr source  dropPkByQueue
attr title  "dropped packets, sum(packetBytes)"
scalar lteCoreNetwork.sgwStandard2.ppp[1].queue 	rcvdPk:count 	28
attr interpolationmode  none
attr title  "received packets, count"
scalar lteCoreNetwork.sgwStandard2.ppp[1].queue 	rcvdPk:sum(packetBytes) 	2912
attr interpolationmode  none
attr title  "received packets, sum(packetBytes)"
scalar lteCoreNetwork.sgwStandard2.ppp[1].ppp 	passedUpPk:count 	28
attr interpolationmode  none
attr source  packetSentToUpper
attr title  "packets passed to higher layer, count"
scalar lteCoreNetwork.sgwStandard2.ppp[1].ppp 	passedUpPk:sum(packetBytes) 	2912
attr interpolationmode  none
attr source  packetSentToUpper
attr title  "packets passed to higher layer, sum(packetBytes)"
scalar lteCoreNetwork.sgwStandard2.ppp[1].ppp 	rcvdPkFromHL:count 	28
attr interpolationmode  none
attr source  packetReceivedFromUpper
attr title  "packets received from higher layer, count"
scalar lteCoreNetwork.sgwStandard2.ppp[1].ppp 	rcvdPkFromHL:sum(packetBytes) 	2912
attr interpolationmode  none
attr source  packetReceivedFromUpper
attr title  "packets received from higher layer, sum(packetBytes)"
scalar lteCoreNetwork.sgwStandard2.ppp[1].ppp 	droppedPkIfaceDown:count 	0
attr interpolationmode  none
attr source  dropPkIfaceDown
attr title  "packets dropped/interface down, count"
scalar lteCoreNetwork.sgwStandard2.ppp[1].ppp 	droppedPkIfaceDown:sum(packetBytes) 	0
attr interpolationmode  none
attr source  dropPkIfaceDown
attr title  "packets dropped/interface down, sum(packetBytes)"
scalar lteCoreNetwork.sgwStandard2.ppp[1].ppp 	droppedPkBitError:count 	0
attr interpolationmode  none
attr source  dropPkBitError
attr title  "packets dropped/bit error, count"
scalar lteCoreNetwork.sgwStandard2.ppp[1].ppp 	droppedPkBitError:sum(packetBytes) 	0
attr interpolationmode  none
attr source  dropPkBitError
attr title  "packets dropped/bit error, sum(packetBytes)"
scalar lteCoreNetwork.sgwStandard2.ppp[1].ppp 	rxPkOk:count 	28
attr interpolationmode  none
attr source  rxPkOk
attr title  "packets received OK, count"
scalar lteCoreNetwork.sgwStandard2.ppp[1].ppp 	rxPkOk:sum(packetBytes) 	3108
attr interpolationmode  none
attr source  rxPkOk
attr title  "packets received OK, sum(packetBytes)"
scalar lteCoreNetwork.sgwStandard2.ppp[1].ppp 	txPk:count 	28
attr interpolationmode  none
attr source  packetSentToLower
attr title  "packets transmitted, count"
scalar lteCoreNetwork.sgwStandard2.ppp[1].ppp 	txPk:sum(packetBytes) 	3108
attr interpolationmode  none
attr source  packetSentToLower
attr title  "packets transmitted, sum(packetBytes)"
scalar lteCoreNetwork.sgwStandard2.ppp[1].ppp 	txState:timeavg 	0.00032708523017071
attr interpolationmode  sample-hold
attr title  "tx state, timeavg"
scalar lteCoreNetwork.sgwStandard2.udp 	droppedPkBadChecksum:count 	0
attr interpolationmode  none
attr title  "packets dropped (checksum error), count"
scalar lteCoreNetwork.sgwStandard2.udp 	droppedPkWrongPort:count 	0
attr interpolationmode  none
attr title  "packets dropped (wrong port), count"
scalar lteCoreNetwork.sgwStandard2.udp 	passedUpPk:count 	56
attr interpolationmode  none
attr title  "packets passed up, count"
scalar lteCoreNetwork.sgwStandard2.udp 	rcvdPk:count 	56
attr interpolationmode  none
attr source  rcvdPk
attr title  "packets received, count"
scalar lteCoreNetwork.sgwStandard2.udp 	rcvdPk:sum(packetBytes) 	4704
attr interpolationmode  none
attr source  rcvdPk
attr title  "packets received, sum(packetBytes)"
scalar lteCoreNetwork.sgwStandard2.udp 	sentPk:count 	56
attr interpolationmode  none
attr source  sentPk
attr title  "packets sent, count"
scalar lteCoreNetwork.sgwStandard2.udp 	sentPk:sum(packetBytes) 	4704
attr interpolationmode  none
attr source  sentPk
attr title  "packets sent, sum(packetBytes)"
scalar lteCoreNetwork.sgwStandard1.networkLayer.arp 	failedResolution:count 	0
attr title  "ARP failed resolutions, count"
scalar lteCoreNetwork.sgwStandard1.networkLayer.arp 	initiatedResolution:count 	0
attr title  "ARP initiated resolutions, count"
scalar lteCoreNetwork.sgwStandard1.networkLayer.arp 	sentReplies:count 	0
attr title  "ARP replies sent, count"
scalar lteCoreNetwork.sgwStandard1.networkLayer.arp 	sentReq:count 	0
attr title  "ARP request sent, count"
scalar lteCoreNetwork.sgwStandard1.ppp[0].queue 	queueLength:max 	0
attr interpolationmode  sample-hold
attr title  "queue length, max"
scalar lteCoreNetwork.sgwStandard1.ppp[0].queue 	queueLength:timeavg 	0
attr interpolationmode  sample-hold
attr title  "queue length, timeavg"
statistic lteCoreNetwork.sgwStandard1.ppp[0].queue 	queueingTime:histogram
field count 28
field mean 0
field stddev 0
field sum 0
field sqrsum 0
field min 0
field max 0
attr interpolationmode  none
attr title  "queueing time, histogram"
bin	-INF	0
bin	-0.5	0
bin	-0.46666666666667	0
bin	-0.43333333333333	0
bin	-0.4	0
bin	-0.36666666666667	0
bin	-0.33333333333333	0
bin	-0.3	0
bin	-0.26666666666667	0
bin	-0.23333333333333	0
bin	-0.2	0
bin	-0.16666666666667	0
bin	-0.13333333333333	0
bin	-0.1	0
bin	-0.066666666666667	0
bin	-0.033333333333333	0
bin	-6.9388939039072e-18	28
bin	0.033333333333333	0
bin	0.066666666666667	0
bin	0.1	0
bin	0.13333333333333	0
bin	0.16666666666667	0
bin	0.2	0
bin	0.23333333333333	0
bin	0.26666666666667	0
bin	0.3	0
bin	0.33333333333333	0
bin	0.36666666666667	0
bin	0.4	0
bin	0.43333333333333	0
bin	0.46666666666667	0
bin	0.5	0
scalar lteCoreNetwork.sgwStandard1.ppp[0].queue 	dropPk:count 	0
attr interpolationmode  none
attr source  dropPkByQueue
attr title  "dropped packets, count"
scalar lteCoreNetwork.sgwStandard1.ppp[0].queue 	dropPk:sum(packetBytes) 	0
attr interpolationmode  none
attr source  dropPkByQueue
attr title  "dropped packets, sum(packetBytes)"
scalar lteCoreNetwork.sgwStandard1.ppp[0].queue 	rcvdPk:count 	28
attr interpolationmode  none
attr title  "received packets, count"
scalar lteCoreNetwork.sgwStandard1.ppp[0].queue 	rcvdPk:sum(packetBytes) 	2912
attr interpolationmode  none
attr title  "received packets, sum(packetBytes)"
scalar lteCoreNetwork.sgwStandard1.ppp[0].ppp 	passedUpPk:count 	28
attr interpolationmode  none
attr source  packetSentToUpper
attr title  "packets passed to higher layer, count"
scalar lteCoreNetwork.sgwStandard1.ppp[0].ppp 	passedUpPk:sum(packetBytes) 	2912
attr interpolationmode  none
attr source  packetSentToUpper
attr title  "packets passed to higher layer, sum(packetBytes)"
scalar lteCoreNetwork.sgwStandard1.ppp[0].ppp 	rcvdPkFromHL:count 	28
attr interpolationmode  none
attr source  packetReceivedFromUpper
attr title  "packets received from higher layer, count"
scalar lteCoreNetwork.sgwStandard1.ppp[0].ppp 	rcvdPkFromHL:sum(packetBytes) 	2912
attr interpolationmode  none
attr source  packetReceivedFromUpper
attr title  "packets received from higher layer, sum(packetBytes)"
scalar lteCoreNetwork.sgwStandard1.ppp[0].ppp 	droppedPkIfaceDown:count 	0
attr interpolationmode  none
attr source  dropPkIfaceDown
attr title  "packets dropped/interface down, count"
scalar lteCoreNetwork.sgwStandard1.ppp[0].ppp 	droppedPkIfaceDown:sum(packetBytes) 	0
attr interpolationmode  none
attr source  dropPkIfaceDown
attr title  "packets dropped/interface down, sum(packetBytes)"
scalar lteCoreNetwork.sgwStandard1.ppp[0].ppp 	droppedPkBitError:count 	0
attr interpolationmode  none
attr source  dropPkBitError
attr title  "packets dropped/bit error, count"
scalar lteCoreNetwork.sgwStandard1.ppp[0].ppp 	droppedPkBitError:sum(packetBytes) 	0
attr interpolationmode  none
attr source  dropPkBitError
attr title  "packets dropped/bit error, sum(packetBytes)"
scalar lteCoreNetwork.sgwStandard1.ppp[0].ppp 	rxPkOk:count 	28
attr interpolationmode  none
attr source  rxPkOk
attr title  "packets received OK, count"
scalar lteCoreNetwork.sgwStandard1.ppp[0].ppp 	rxPkOk:sum(packetBytes) 	3108
attr interpolationmode  none
attr source  rxPkOk
attr title  "packets received OK, sum(packetBytes)"
scalar lteCoreNetwork.sgwStandard1.ppp[0].ppp 	txPk:count 	28
attr interpolationmode  none
attr source  packetSentToLower
attr title  "packets transmitted, count"
scalar lteCoreNetwork.sgwStandard1.ppp[0].ppp 	txPk:sum(packetBytes) 	3108
attr interpolationmode  none
attr source  packetSentToLower
attr title  "packets transmitted, sum(packetBytes)"
scalar lteCoreNetwork.sgwStandard1.ppp[0].ppp 	txState:timeavg 	0.00032708523017071
attr interpolationmode  sample-hold
attr title  "tx state, timeavg"
scalar lteCoreNetwork.sgwStandard1.ppp[1].queue 	queueLength:max 	0
attr interpolationmode  sample-hold
attr title  "queue length, max"
scalar lteCoreNetwork.sgwStandard1.ppp[1].queue 	queueLength:timeavg 	0
attr interpolationmode  sample-hold
attr title  "queue length, timeavg"
statistic lteCoreNetwork.sgwStandard1.ppp[1].queue 	queueingTime:histogram
field count 28
field mean 0
field stddev 0
field sum 0
field sqrsum 0
field min 0
field max 0
attr interpolationmode  none
attr title  "queueing time, histogram"
bin	-INF	0
bin	-0.5	0
bin	-0.46666666666667	0
bin	-0.43333333333333	0
bin	-0.4	0
bin	-0.36666666666667	0
bin	-0.33333333333333	0
bin	-0.3	0
bin	-0.26666666666667	0
bin	-0.23333333333333	0
bin	-0.2	0
bin	-0.16666666666667	0
bin	-0.13333333333333	0
bin	-0.1	0
bin	-0.066666666666667	0
bin	-0.033333333333333	0
bin	-6.9388939039072e-18	28
bin	0.033333333333333	0
bin	0.066666666666667	0
bin	0.1	0
bin	0.13333333333333	0
bin	0.16666666666667	0
bin	0.2	0
bin	0.23333333333333	0
bin	0.26666666666667	0
bin	0.3	0
bin	0.33333333333333	0
bin	0.36666666666667	0
bin	0.4	0
bin	0.43333333333333	0
bin	0.46666666666667	0
bin	0.5	0
scalar lteCoreNetwork.sgwStandard1.ppp[1].queue 	dropPk:count 	0
attr interpolationmode  none
attr source  dropPkByQueue
attr title  "dropped packets, count"
scalar lteCoreNetwork.sgwStandard1.ppp[1].queue 	dropPk:sum(packetBytes) 	0
attr interpolationmode  none
attr source  dropPkByQueue
attr title  "dropped packets, sum(packetBytes)"
scalar lteCoreNetwork.sgwStandard1.ppp[1].queue 	rcvdPk:count 	28
attr interpolationmode  none
attr title  "received packets, count"
scalar lteCoreNetwork.sgwStandard1.ppp[1].queue 	rcvdPk:sum(packetBytes) 	2912
attr interpolationmode  none
attr title  "received packets, sum(packetBytes)"
scalar lteCoreNetwork.sgwStandard1.ppp[1].ppp 	passedUpPk:count 	28
attr interpolationmode  none
attr source  packetSentToUpper
attr title  "packets passed to higher layer, count"
scalar lteCoreNetwork.sgwStandard1.ppp[1].ppp 	passedUpPk:sum(packetBytes) 	2912
attr interpolationmode  none
attr source  packetSentToUpper
attr title  "packets passed to higher layer, sum(packetBytes)"
scalar lteCoreNetwork.sgwStandard1.ppp[1].ppp 	rcvdPkFromHL:count 	28
attr interpolationmode  none
attr source  packetReceivedFromUpper
attr title  "packets received from higher layer, count"
scalar lteCoreNetwork.sgwStandard1.ppp[1].ppp 	rcvdPkFromHL:sum(packetBytes) 	2912
attr interpolationmode  none
attr source  packetReceivedFromUpper
attr title  "packets received from higher layer, sum(packetBytes)"
scalar lteCoreNetwork.sgwStandard1.ppp[1].ppp 	droppedPkIfaceDown:count 	0
attr interpolationmode  none
attr source  dropPkIfaceDown
attr title  "packets dropped/interface down, count"
scalar lteCoreNetwork.sgwStandard1.ppp[1].ppp 	droppedPkIfaceDown:sum(packetBytes) 	0
attr interpolationmode  none
attr source  dropPkIfaceDown
attr title  "packets dropped/interface down, sum(packetBytes)"
scalar lteCoreNetwork.sgwStandard1.ppp[1].ppp 	droppedPkBitError:count 	0
attr interpolationmode  none
attr source  dropPkBitError
attr title  "packets dropped/bit error, count"
scalar lteCoreNetwork.sgwStandard1.ppp[1].ppp 	droppedPkBitError:sum(packetBytes) 	0
attr interpolationmode  none
attr source  dropPkBitError
attr title  "packets dropped/bit error, sum(packetBytes)"
scalar lteCoreNetwork.sgwStandard1.ppp[1].ppp 	rxPkOk:count 	28
attr interpolationmode  none
attr source  rxPkOk
attr title  "packets received OK, count"
scalar lteCoreNetwork.sgwStandard1.ppp[1].ppp 	rxPkOk:sum(packetBytes) 	3108
attr interpolationmode  none
attr source  rxPkOk
attr title  "packets received OK, sum(packetBytes)"
scalar lteCoreNetwork.sgwStandard1.ppp[1].ppp 	txPk:count 	28
attr interpolationmode  none
attr source  packetSentToLower
attr title  "packets transmitted, count"
scalar lteCoreNetwork.sgwStandard1.ppp[1].ppp 	txPk:sum(packetBytes) 	3108
attr interpolationmode  none
attr source  packetSentToLower
attr title  "packets transmitted, sum(packetBytes)"
scalar lteCoreNetwork.sgwStandard1.ppp[1].ppp 	txState:timeavg 	0.00032708523017071
attr interpolationmode  sample-hold
attr title  "tx state, timeavg"
scalar lteCoreNetwork.sgwStandard1.udp 	droppedPkBadChecksum:count 	0
attr interpolationmode  none
attr title  "packets dropped (checksum error), count"
scalar lteCoreNetwork.sgwStandard1.udp 	droppedPkWrongPort:count 	0
attr interpolationmode  none
attr title  "packets dropped (wrong port), count"
scalar lteCoreNetwork.sgwStandard1.udp 	passedUpPk:count 	56
attr interpolationmode  none
attr title  "packets passed up, count"
scalar lteCoreNetwork.sgwStandard1.udp 	rcvdPk:count 	56
attr interpolationmode  none
attr source  rcvdPk
attr title  "packets received, count"
scalar lteCoreNetwork.sgwStandard1.udp 	rcvdPk:sum(packetBytes) 	4704
attr interpolationmode  none
attr source  rcvdPk
attr title  "packets received, sum(packetBytes)"
scalar lteCoreNetwork.sgwStandard1.udp 	sentPk:count 	56
attr interpolationmode  none
attr source  sentPk
attr title  "packets sent, count"
scalar lteCoreNetwork.sgwStandard1.udp 	sentPk:sum(packetBytes) 	4704
attr interpolationmode  none
attr source  sentPk
attr title  "packets sent, sum(packetBytes)"
scalar lteCoreNetwork.router.networkLayer.arp 	failedResolution:count 	0
attr title  "ARP failed resolutions, count"
scalar lteCoreNetwork.router.networkLayer.arp 	initiatedResolution:count 	0
attr title  "ARP initiated resolutions, count"
scalar lteCoreNetwork.router.networkLayer.arp 	sentReplies:count 	0
attr title  "ARP replies sent, count"
scalar lteCoreNetwork.router.networkLayer.arp 	sentReq:count 	0
attr title  "ARP request sent, count"
scalar lteCoreNetwork.router.ppp[0].queue 	queueLength:max 	0
attr interpolationmode  sample-hold
attr title  "queue length, max"
scalar lteCoreNetwork.router.ppp[0].queue 	queueLength:timeavg 	0
attr interpolationmode  sample-hold
attr title  "queue length, timeavg"
statistic lteCoreNetwork.router.ppp[0].queue 	queueingTime:histogram
field count 56
field mean 0
field stddev 0
field sum 0
field sqrsum 0
field min 0
field max 0
attr interpolationmode  none
attr title  "queueing time, histogram"
bin	-INF	0
bin	-0.5	0
bin	-0.46666666666667	0
bin	-0.43333333333333	0
bin	-0.4	0
bin	-0.36666666666667	0
bin	-0.33333333333333	0
bin	-0.3	0
bin	-0.26666666666667	0
bin	-0.23333333333333	0
bin	-0.2	0
bin	-0.16666666666667	0
bin	-0.13333333333333	0
bin	-0.1	0
bin	-0.066666666666667	0
bin	-0.033333333333333	0
bin	-6.9388939039072e-18	56
bin	0.033333333333333	0
bin	0.066666666666667	0
bin	0.1	0
bin	0.13333333333333	0
bin	0.16666666666667	0
bin	0.2	0
bin	0.23333333333333	0
bin	0.26666666666667	0
bin	0.3	0
bin	0.33333333333333	0
bin	0.36666666666667	0
bin	0.4	0
bin	0.43333333333333	0
bin	0.46666666666667	0
bin	0.5	0
scalar lteCoreNetwork.router.ppp[0].queue 	dropPk:count 	0
attr interpolationmode  none
attr source  dropPkByQueue
attr title  "dropped packets, count"
scalar lteCoreNetwork.router.ppp[0].queue 	dropPk:sum(packetBytes) 	0
attr interpolationmode  none
attr source  dropPkByQueue
attr title  "dropped packets, sum(packetBytes)"
scalar lteCoreNetwork.router.ppp[0].queue 	rcvdPk:count 	56
attr interpolationmode  none
attr title  "received packets, count"
scalar lteCoreNetwork.router.ppp[0].queue 	rcvdPk:sum(packetBytes) 	5824
attr interpolationmode  none
attr title  "received packets, sum(packetBytes)"
scalar lteCoreNetwork.router.ppp[0].ppp 	passedUpPk:count 	56
attr interpolationmode  none
attr source  packetSentToUpper
attr title  "packets passed to higher layer, count"
scalar lteCoreNetwork.router.ppp[0].ppp 	passedUpPk:sum(packetBytes) 	5824
attr interpolationmode  none
attr source  packetSentToUpper
attr title  "packets passed to higher layer, sum(packetBytes)"
scalar lteCoreNetwork.router.ppp[0].ppp 	rcvdPkFromHL:count 	56
attr interpolationmode  none
attr source  packetReceivedFromUpper
attr title  "packets received from higher layer, count"
scalar lteCoreNetwork.router.ppp[0].ppp 	rcvdPkFromHL:sum(packetBytes) 	5824
attr interpolationmode  none
attr source  packetReceivedFromUpper
attr title  "packets received from higher layer, sum(packetBytes)"
scalar lteCoreNetwork.router.ppp[0].ppp 	droppedPkIfaceDown:count 	0
attr interpolationmode  none
attr source  dropPkIfaceDown
attr title  "packets dropped/interface down, count"
scalar lteCoreNetwork.router.ppp[0].ppp 	droppedPkIfaceDown:sum(packetBytes) 	0
attr interpolationmode  none
attr source  dropPkIfaceDown
attr title  "packets dropped/interface down, sum(packetBytes)"
scalar lteCoreNetwork.router.ppp[0].ppp 	droppedPkBitError:count 	0
attr interpolationmode  none
attr source  dropPkBitError
attr title  "packets dropped/bit error, count"
scalar lteCoreNetwork.router.ppp[0].ppp 	droppedPkBitError:sum(packetBytes) 	0
attr interpolationmode  none
attr source  dropPkBitError
attr title  "packets dropped/bit error, sum(packetBytes)"
scalar lteCoreNetwork.router.ppp[0].ppp 	rxPkOk:count 	56
attr interpolationmode  none
attr source  rxPkOk
attr title  "packets received OK, count"
scalar lteCoreNetwork.router.ppp[0].ppp 	rxPkOk:sum(packetBytes) 	6216
attr interpolationmode  none
attr source  rxPkOk
attr title  "packets received OK, sum(packetBytes)"
scalar lteCoreNetwork.router.ppp[0].ppp 	txPk:count 	56
attr interpolationmode  none
attr source  packetSentToLower
attr title  "packets transmitted, count"
scalar lteCoreNetwork.router.ppp[0].ppp 	txPk:sum(packetBytes) 	6216
attr interpolationmode  none
attr source  packetSentToLower
attr title  "packets transmitted, sum(packetBytes)"
scalar lteCoreNetwork.router.ppp[0].ppp 	txState:timeavg 	0.00065417046034142
attr interpolationmode  sample-hold
attr title  "tx state, timeavg"
scalar lteCoreNetwork.router.ppp[1].queue 	queueLength:max 	0
attr interpolationmode  sample-hold
attr title  "queue length, max"
scalar lteCoreNetwork.router.ppp[1].queue 	queueLength:timeavg 	0
attr interpolationmode  sample-hold
attr title  "queue length, timeavg"
statistic lteCoreNetwork.router.ppp[1].queue 	queueingTime:histogram
field count 28
field mean 0
field stddev 0
field sum 0
field sqrsum 0
field min 0
field max 0
attr interpolationmode  none
attr title  "queueing time, histogram"
bin	-INF	0
bin	-0.5	0
bin	-0.46666666666667	0
bin	-0.43333333333333	0
bin	-0.4	0
bin	-0.36666666666667	0
bin	-0.33333333333333	0
bin	-0.3	0
bin	-0.26666666666667	0
bin	-0.23333333333333	0
bin	-0.2	0
bin	-0.16666666666667	0
bin	-0.13333333333333	0
bin	-0.1	0
bin	-0.066666666666667	0
bin	-0.033333333333333	0
bin	-6.9388939039072e-18	28
bin	0.033333333333333	0
bin	0.066666666666667	0
bin	0.1	0
bin	0.13333333333333	0
bin	0.16666666666667	0
bin	0.2	0
bin	0.23333333333333	0
bin	0.26666666666667	0
bin	0.3	0
bin	0.33333333333333	0
bin	0.36666666666667	0
bin	0.4	0
bin	0.43333333333333	0
bin	0.46666666666667	0
bin	0.5	0
scalar lteCoreNetwork.router.ppp[1].queue 	dropPk:count 	0
attr interpolationmode  none
attr source  dropPkByQueue
attr title  "dropped packets, count"
scalar lteCoreNetwork.router.ppp[1].queue 	dropPk:sum(packetBytes) 	0
attr interpolationmode  none
attr source  dropPkByQueue
attr title  "dropped packets, sum(packetBytes)"
scalar lteCoreNetwork.router.ppp[1].queue 	rcvdPk:count 	28
attr interpolationmode  none
attr title  "received packets, count"
scalar lteCoreNetwork.router.ppp[1].queue 	rcvdPk:sum(packetBytes) 	2912
attr interpolationmode  none
attr title  "received packets, sum(packetBytes)"
scalar lteCoreNetwork.router.ppp[1].ppp 	passedUpPk:count 	28
attr interpolationmode  none
attr source  packetSentToUpper
attr title  "packets passed to higher layer, count"
scalar lteCoreNetwork.router.ppp[1].ppp 	passedUpPk:sum(packetBytes) 	2912
attr interpolationmode  none
attr source  packetSentToUpper
attr title  "packets passed to higher layer, sum(packetBytes)"
scalar lteCoreNetwork.router.ppp[1].ppp 	rcvdPkFromHL:count 	28
attr interpolationmode  none
attr source  packetReceivedFromUpper
attr title  "packets received from higher layer, count"
scalar lteCoreNetwork.router.ppp[1].ppp 	rcvdPkFromHL:sum(packetBytes) 	2912
attr interpolationmode  none
attr source  packetReceivedFromUpper
attr title  "packets received from higher layer, sum(packetBytes)"
scalar lteCoreNetwork.router.ppp[1].ppp 	droppedPkIfaceDown:count 	0
attr interpolationmode  none
attr source  dropPkIfaceDown
attr title  "packets dropped/interface down, count"
scalar lteCoreNetwork.router.ppp[1].ppp 	droppedPkIfaceDown:sum(packetBytes) 	0
attr interpolationmode  none
attr source  dropPkIfaceDown
attr title  "packets dropped/interface down, sum(packetBytes)"
scalar lteCoreNetwork.router.ppp[1].ppp 	droppedPkBitError:count 	0
attr interpolationmode  none
attr source  dropPkBitError
attr title  "packets dropped/bit error, count"
scalar lteCoreNetwork.router.ppp[1].ppp 	droppedPkBitError:sum(packetBytes) 	0
attr interpolationmode  none
attr source  dropPkBitError
attr title  "packets dropped/bit error, sum(packetBytes)"
scalar lteCoreNetwork.router.ppp[1].ppp 	rxPkOk:count 	28
attr interpolationmode  none
attr source  rxPkOk
attr title  "packets received OK, count"
scalar lteCoreNetwork.router.ppp[1].ppp 	rxPkOk:sum(packetBytes) 	3108
attr interpolationmode  none
attr source  rxPkOk
attr title  "packets received OK, sum(packetBytes)"
scalar lteCoreNetwork.router.ppp[1].ppp 	txPk:count 	28
attr interpolationmode  none
attr source  packetSentToLower
attr title  "packets transmitted, count"
scalar lteCoreNetwork.router.ppp[1].ppp 	txPk:sum(packetBytes) 	3108
attr interpolationmode  none
attr source  packetSentToLower
attr title  "packets transmitted, sum(packetBytes)"
scalar lteCoreNetwork.router.ppp[1].ppp 	txState:timeavg 	0.00032708523017071
attr interpolationmode  sample-hold
attr title  "tx state, timeavg"
scalar lteCoreNetwork.router.ppp[2].queue 	queueLength:max 	0
attr interpolationmode  sample-hold
attr title  "queue length, max"
scalar lteCoreNetwork.router.ppp[2].queue 	queueLength:timeavg 	0
attr interpolationmode  sample-hold
attr title  "queue length, timeavg"
statistic lteCoreNetwork.router.ppp[2].queue 	queueingTime:histogram
field count 28
field mean 0
field stddev 0
field sum 0
field sqrsum 0
field min 0
field max 0
attr interpolationmode  none
attr title  "queueing time, histogram"
bin	-INF	0
bin	-0.5	0
bin	-0.46666666666667	0
bin	-0.43333333333333	0
bin	-0.4	0
bin	-0.36666666666667	0
bin	-0.33333333333333	0
bin	-0.3	0
bin	-0.26666666666667	0
bin	-0.23333333333333	0
bin	-0.2	0
bin	-0.16666666666667	0
bin	-0.13333333333333	0
bin	-0.1	0
bin	-0.066666666666667	0
bin	-0.033333333333333	0
bin	-6.9388939039072e-18	28
bin	0.033333333333333	0
bin	0.066666666666667	0
bin	0.1	0
bin	0.13333333333333	0
bin	0.16666666666667	0
bin	0.2	0
bin	0.23333333333333	0
bin	0.26666666666667	0
bin	0.3	0
bin	0.33333333333333	0
bin	0.36666666666667	0
bin	0.4	0
bin	0.43333333333333	0
bin	0.46666666666667	0
bin	0.5	0
scalar lteCoreNetwork.router.ppp[2].queue 	dropPk:count 	0
attr interpolationmode  none
attr source  dropPkByQueue
attr title  "dropped packets, count"
scalar lteCoreNetwork.router.ppp[2].queue 	dropPk:sum(packetBytes) 	0
attr interpolationmode  none
attr source  dropPkByQueue
attr title  "dropped packets, sum(packetBytes)"
scalar lteCoreNetwork.router.ppp[2].queue 	rcvdPk:count 	28
attr interpolationmode  none
attr title  "received packets, count"
scalar lteCoreNetwork.router.ppp[2].queue 	rcvdPk:sum(packetBytes) 	2912
attr interpolationmode  none
attr title  "received packets, sum(packetBytes)"
scalar lteCoreNetwork.router.ppp[2].ppp 	passedUpPk:count 	28
attr interpolationmode  none
attr source  packetSentToUpper
attr title  "packets passed to higher layer, count"
scalar lteCoreNetwork.router.ppp[2].ppp 	passedUpPk:sum(packetBytes) 	2912
attr interpolationmode  none
attr source  packetSentToUpper
attr title  "packets passed to higher layer, sum(packetBytes)"
scalar lteCoreNetwork.router.ppp[2].ppp 	rcvdPkFromHL:count 	28
attr interpolationmode  none
attr source  packetReceivedFromUpper
attr title  "packets received from higher layer, count"
scalar lteCoreNetwork.router.ppp[2].ppp 	rcvdPkFromHL:sum(packetBytes) 	2912
attr interpolationmode  none
attr source  packetReceivedFromUpper
attr title  "packets received from higher layer, sum(packetBytes)"
scalar lteCoreNetwork.router.ppp[2].ppp 	droppedPkIfaceDown:count 	0
attr interpolationmode  none
attr source  dropPkIfaceDown
attr title  "packets dropped/interface down, count"
scalar lteCoreNetwork.router.ppp[2].ppp 	droppedPkIfaceDown:sum(packetBytes) 	0
attr interpolationmode  none
attr source  dropPkIfaceDown
attr title  "packets dropped/interface down, sum(packetBytes)"
scalar lteCoreNetwork.router.ppp[2].ppp 	droppedPkBitError:count 	0
attr interpolationmode  none
attr source  dropPkBitError
attr title  "packets dropped/bit error, count"
scalar lteCoreNetwork.router.ppp[2].ppp 	droppedPkBitError:sum(packetBytes) 	0
attr interpolationmode  none
attr source  dropPkBitError
attr title  "packets dropped/bit error, sum(packetBytes)"
scalar lteCoreNetwork.router.ppp[2].ppp 	rxPkOk:count 	28
attr interpolationmode  none
attr source  rxPkOk
attr title  "packets received OK, count"
scalar lteCoreNetwork.router.ppp[2].ppp 	rxPkOk:sum(packetBytes) 	3108
attr interpolationmode  none
attr source  rxPkOk
attr title  "packets received OK, sum(packetBytes)"
scalar lteCoreNetwork.router.ppp[2].ppp 	txPk:count 	28
attr interpolationmode  none
attr source  packetSentToLower
attr title  "packets transmitted, count"
scalar lteCoreNetwork.router.ppp[2].ppp 	txPk:sum(packetBytes) 	3108
attr interpolationmode  none
attr source  packetSentToLower
attr title  "packets transmitted, sum(packetBytes)"
scalar lteCoreNetwork.router.ppp[2].ppp 	txState:timeavg 	0.00032708523017071
attr interpolationmode  sample-hold
attr title  "tx state, timeavg"
scalar lteCoreNetwork.router1.networkLayer.arp 	failedResolution:count 	0
attr title  "ARP failed resolutions, count"
scalar lteCoreNetwork.router1.networkLayer.arp 	initiatedResolution:count 	0
attr title  "ARP initiated resolutions, count"
scalar lteCoreNetwork.router1.networkLayer.arp 	sentReplies:count 	0
attr title  "ARP replies sent, count"
scalar lteCoreNetwork.router1.networkLayer.arp 	sentReq:count 	0
attr title  "ARP request sent, count"
scalar lteCoreNetwork.router1.ppp[0].queue 	queueLength:max 	0
attr interpolationmode  sample-hold
attr title  "queue length, max"
scalar lteCoreNetwork.router1.ppp[0].queue 	queueLength:timeavg 	0
attr interpolationmode  sample-hold
attr title  "queue length, timeavg"
statistic lteCoreNetwork.router1.ppp[0].queue 	queueingTime:histogram
field count 28
field mean 0
field stddev 0
field sum 0
field sqrsum 0
field min 0
field max 0
attr interpolationmode  none
attr title  "queueing time, histogram"
bin	-INF	0
bin	-0.5	0
bin	-0.46666666666667	0
bin	-0.43333333333333	0
bin	-0.4	0
bin	-0.36666666666667	0
bin	-0.33333333333333	0
bin	-0.3	0
bin	-0.26666666666667	0
bin	-0.23333333333333	0
bin	-0.2	0
bin	-0.16666666666667	0
bin	-0.13333333333333	0
bin	-0.1	0
bin	-0.066666666666667	0
bin	-0.033333333333333	0
bin	-6.9388939039072e-18	28
bin	0.033333333333333	0
bin	0.066666666666667	0
bin	0.1	0
bin	0.13333333333333	0
bin	0.16666666666667	0
bin	0.2	0
bin	0.23333333333333	0
bin	0.26666666666667	0
bin	0.3	0
bin	0.33333333333333	0
bin	0.36666666666667	0
bin	0.4	0
bin	0.43333333333333	0
bin	0.46666666666667	0
bin	0.5	0
scalar lteCoreNetwork.router1.ppp[0].queue 	dropPk:count 	0
attr interpolationmode  none
attr source  dropPkByQueue
attr title  "dropped packets, count"
scalar lteCoreNetwork.router1.ppp[0].queue 	dropPk:sum(packetBytes) 	0
attr interpolationmode  none
attr source  dropPkByQueue
attr title  "dropped packets, sum(packetBytes)"
scalar lteCoreNetwork.router1.ppp[0].queue 	rcvdPk:count 	28
attr interpolationmode  none
attr title  "received packets, count"
scalar lteCoreNetwork.router1.ppp[0].queue 	rcvdPk:sum(packetBytes) 	2912
attr interpolationmode  none
attr title  "received packets, sum(packetBytes)"
scalar lteCoreNetwork.router1.ppp[0].ppp 	passedUpPk:count 	28
attr interpolationmode  none
attr source  packetSentToUpper
attr title  "packets passed to higher layer, count"
scalar lteCoreNetwork.router1.ppp[0].ppp 	passedUpPk:sum(packetBytes) 	2912
attr interpolationmode  none
attr source  packetSentToUpper
attr title  "packets passed to higher layer, sum(packetBytes)"
scalar lteCoreNetwork.router1.ppp[0].ppp 	rcvdPkFromHL:count 	28
attr interpolationmode  none
attr source  packetReceivedFromUpper
attr title  "packets received from higher layer, count"
scalar lteCoreNetwork.router1.ppp[0].ppp 	rcvdPkFromHL:sum(packetBytes) 	2912
attr interpolationmode  none
attr source  packetReceivedFromUpper
attr title  "packets received from higher layer, sum(packetBytes)"
scalar lteCoreNetwork.router1.ppp[0].ppp 	droppedPkIfaceDown:count 	0
attr interpolationmode  none
attr source  dropPkIfaceDown
attr title  "packets dropped/interface down, count"
scalar lteCoreNetwork.router1.ppp[0].ppp 	droppedPkIfaceDown:sum(packetBytes) 	0
attr interpolationmode  none
attr source  dropPkIfaceDown
attr title  "packets dropped/interface down, sum(packetBytes)"
scalar lteCoreNetwork.router1.ppp[0].ppp 	droppedPkBitError:count 	0
attr interpolationmode  none
attr source  dropPkBitError
attr title  "packets dropped/bit error, count"
scalar lteCoreNetwork.router1.ppp[0].ppp 	droppedPkBitError:sum(packetBytes) 	0
attr interpolationmode  none
attr source  dropPkBitError
attr title  "packets dropped/bit error, sum(packetBytes)"
scalar lteCoreNetwork.router1.ppp[0].ppp 	rxPkOk:count 	28
attr interpolationmode  none
attr source  rxPkOk
attr title  "packets received OK, count"
scalar lteCoreNetwork.router1.ppp[0].ppp 	rxPkOk:sum(packetBytes) 	3108
attr interpolationmode  none
attr source  rxPkOk
attr title  "packets received OK, sum(packetBytes)"
scalar lteCoreNetwork.router1.ppp[0].ppp 	txPk:count 	28
attr interpolationmode  none
attr source  packetSentToLower
attr title  "packets transmitted, count"
scalar lteCoreNetwork.router1.ppp[0].ppp 	txPk:sum(packetBytes) 	3108
attr interpolationmode  none
attr source  packetSentToLower
attr title  "packets transmitted, sum(packetBytes)"
scalar lteCoreNetwork.router1.ppp[0].ppp 	txState:timeavg 	0.00032708523017071
attr interpolationmode  sample-hold
attr title  "tx state, timeavg"
scalar lteCoreNetwork.router1.ppp[1].queue 	queueLength:max 	0
attr interpolationmode  sample-hold
attr title  "queue length, max"
scalar lteCoreNetwork.router1.ppp[1].queue 	queueLength:timeavg 	0
attr interpolationmode  sample-hold
attr title  "queue length, timeavg"
statistic lteCoreNetwork.router1.ppp[1].queue 	queueingTime:histogram
field count 28
field mean 0
field stddev 0
field sum 0
field sqrsum 0
field min 0
field max 0
attr interpolationmode  none
attr title  "queueing time, histogram"
bin	-INF	0
bin	-0.5	0
bin	-0.46666666666667	0
bin	-0.43333333333333	0
bin	-0.4	0
bin	-0.36666666666667	0
bin	-0.33333333333333	0
bin	-0.3	0
bin	-0.26666666666667	0
bin	-0.23333333333333	0
bin	-0.2	0
bin	-0.16666666666667	0
bin	-0.13333333333333	0
bin	-0.1	0
bin	-0.066666666666667	0
bin	-0.033333333333333	0
bin	-6.9388939039072e-18	28
bin	0.033333333333333	0
bin	0.066666666666667	0
bin	0.1	0
bin	0.13333333333333	0
bin	0.16666666666667	0
bin	0.2	0
bin	0.23333333333333	0
bin	0.26666666666667	0
bin	0.3	0
bin	0.33333333333333	0
bin	0.36666666666667	0
bin	0.4	0
bin	0.43333333333333	0
bin	0.46666666666667	0
bin	0.5	0
scalar lteCoreNetwork.router1.ppp[1].queue 	dropPk:count 	0
attr interpolationmode  none
attr source  dropPkByQueue
attr title  "dropped packets, count"
scalar lteCoreNetwork.router1.ppp[1].queue 	dropPk:sum(packetBytes) 	0
attr interpolationmode  none
attr source  dropPkByQueue
attr title  "dropped packets, sum(packetBytes)"
scalar lteCoreNetwork.router1.ppp[1].queue 	rcvdPk:count 	28
attr interpolationmode  none
attr title  "received packets, count"
scalar lteCoreNetwork.router1.ppp[1].queue 	rcvdPk:sum(packetBytes) 	2912
attr interpolationmode  none
attr title  "received packets, sum(packetBytes)"
scalar lteCoreNetwork.router1.ppp[1].ppp 	passedUpPk:count 	28
attr interpolationmode  none
attr source  packetSentToUpper
attr title  "packets passed to higher layer, count"
scalar lteCoreNetwork.router1.ppp[1].ppp 	passedUpPk:sum(packetBytes) 	2912
attr interpolationmode  none
attr source  packetSentToUpper
attr title  "packets passed to higher layer, sum(packetBytes)"
scalar lteCoreNetwork.router1.ppp[1].ppp 	rcvdPkFromHL:count 	28
attr interpolationmode  none
attr source  packetReceivedFromUpper
attr title  "packets received from higher layer, count"
scalar lteCoreNetwork.router1.ppp[1].ppp 	rcvdPkFromHL:sum(packetBytes) 	2912
attr interpolationmode  none
attr source  packetReceivedFromUpper
attr title  "packets received from higher layer, sum(packetBytes)"
scalar lteCoreNetwork.router1.ppp[1].ppp 	droppedPkIfaceDown:count 	0
attr interpolationmode  none
attr source  dropPkIfaceDown
attr title  "packets dropped/interface down, count"
scalar lteCoreNetwork.router1.ppp[1].ppp 	droppedPkIfaceDown:sum(packetBytes) 	0
attr interpolationmode  none
attr source  dropPkIfaceDown
attr title  "packets dropped/interface down, sum(packetBytes)"
scalar lteCoreNetwork.router1.ppp[1].ppp 	droppedPkBitError:count 	0
attr interpolationmode  none
attr source  dropPkBitError
attr title  "packets dropped/bit error, count"
scalar lteCoreNetwork.router1.ppp[1].ppp 	droppedPkBitError:sum(packetBytes) 	0
attr interpolationmode  none
attr source  dropPkBitError
attr title  "packets dropped/bit error, sum(packetBytes)"
scalar lteCoreNetwork.router1.ppp[1].ppp 	rxPkOk:count 	28
attr interpolationmode  none
attr source  rxPkOk
attr title  "packets received OK, count"
scalar lteCoreNetwork.router1.ppp[1].ppp 	rxPkOk:sum(packetBytes) 	3108
attr interpolationmode  none
attr source  rxPkOk
attr title  "packets received OK, sum(packetBytes)"
scalar lteCoreNetwork.router1.ppp[1].ppp 	txPk:count 	28
attr interpolationmode  none
attr source  packetSentToLower
attr title  "packets transmitted, count"
scalar lteCoreNetwork.router1.ppp[1].ppp 	txPk:sum(packetBytes) 	3108
attr interpolationmode  none
attr source  packetSentToLower
attr title  "packets transmitted, sum(packetBytes)"
scalar lteCoreNetwork.router1.ppp[1].ppp 	txState:timeavg 	0.00032708523017071
attr interpolationmode  sample-hold
attr title  "tx state, timeavg"
scalar lteCoreNetwork.router2.networkLayer.arp 	failedResolution:count 	0
attr title  "ARP failed resolutions, count"
scalar lteCoreNetwork.router2.networkLayer.arp 	initiatedResolution:count 	0
attr title  "ARP initiated resolutions, count"
[...]
attr interpolationmode  none
attr source  encapPk
attr title  "packets encapsulated, sum(packetBytes)"
scalar lteCoreNetwork.UE1.networkLayer.arp 	failedResolution:count 	0
attr title  "ARP failed resolutions, count"
scalar lteCoreNetwork.UE1.networkLayer.arp 	initiatedResolution:count 	0
attr title  "ARP initiated resolutions, count"
scalar lteCoreNetwork.UE1.networkLayer.arp 	sentReplies:count 	0
attr title  "ARP replies sent, count"
scalar lteCoreNetwork.UE1.networkLayer.arp 	sentReq:count 	0
attr title  "ARP request sent, count"
scalar lteCoreNetwork.UE1.ppp[0].queue 	queueLength:max 	0
attr interpolationmode  sample-hold
attr title  "queue length, max"
scalar lteCoreNetwork.UE1.ppp[0].queue 	queueLength:timeavg 	0
attr interpolationmode  sample-hold
attr title  "queue length, timeavg"
statistic lteCoreNetwork.UE1.ppp[0].queue 	queueingTime:histogram
field count 28
field mean 0
field stddev 0
field sum 0
field sqrsum 0
field min 0
field max 0
attr interpolationmode  none
attr title  "queueing time, histogram"
bin	-INF	0
bin	-0.5	0
bin	-0.46666666666667	0
bin	-0.43333333333333	0
bin	-0.4	0
bin	-0.36666666666667	0
bin	-0.33333333333333	0
bin	-0.3	0
bin	-0.26666666666667	0
bin	-0.23333333333333	0
bin	-0.2	0
bin	-0.16666666666667	0
bin	-0.13333333333333	0
bin	-0.1	0
bin	-0.066666666666667	0
bin	-0.033333333333333	0
bin	-6.9388939039072e-18	28
bin	0.033333333333333	0
bin	0.066666666666667	0
bin	0.1	0
bin	0.13333333333333	0
bin	0.16666666666667	0
bin	0.2	0
bin	0.23333333333333	0
bin	0.26666666666667	0
bin	0.3	0
bin	0.33333333333333	0
bin	0.36666666666667	0
bin	0.4	0
bin	0.43333333333333	0
bin	0.46666666666667	0
bin	0.5	0
scalar lteCoreNetwork.UE1.ppp[0].queue 	dropPk:count 	0
attr interpolationmode  none
attr source  dropPkByQueue
attr title  "dropped packets, count"
scalar lteCoreNetwork.UE1.ppp[0].queue 	dropPk:sum(packetBytes) 	0
attr interpolationmode  none
attr source  dropPkByQueue
attr title  "dropped packets, sum(packetBytes)"
scalar lteCoreNetwork.UE1.ppp[0].queue 	rcvdPk:count 	28
attr interpolationmode  none
attr title  "received packets, count"
scalar lteCoreNetwork.UE1.ppp[0].queue 	rcvdPk:sum(packetBytes) 	2128
attr interpolationmode  none
attr title  "received packets, sum(packetBytes)"
scalar lteCoreNetwork.UE1.ppp[0].ppp 	passedUpPk:count 	28
attr interpolationmode  none
attr source  packetSentToUpper
attr title  "packets passed to higher layer, count"
scalar lteCoreNetwork.UE1.ppp[0].ppp 	passedUpPk:sum(packetBytes) 	2128
attr interpolationmode  none
attr source  packetSentToUpper
attr title  "packets passed to higher layer, sum(packetBytes)"
scalar lteCoreNetwork.UE1.ppp[0].ppp 	rcvdPkFromHL:count 	28
attr interpolationmode  none
attr source  packetReceivedFromUpper
attr title  "packets received from higher layer, count"
scalar lteCoreNetwork.UE1.ppp[0].ppp 	rcvdPkFromHL:sum(packetBytes) 	2128
attr interpolationmode  none
attr source  packetReceivedFromUpper
attr title  "packets received from higher layer, sum(packetBytes)"
scalar lteCoreNetwork.UE1.ppp[0].ppp 	droppedPkIfaceDown:count 	0
attr interpolationmode  none
attr source  dropPkIfaceDown
attr title  "packets dropped/interface down, count"
scalar lteCoreNetwork.UE1.ppp[0].ppp 	droppedPkIfaceDown:sum(packetBytes) 	0
attr interpolationmode  none
attr source  dropPkIfaceDown
attr title  "packets dropped/interface down, sum(packetBytes)"
scalar lteCoreNetwork.UE1.ppp[0].ppp 	droppedPkBitError:count 	0
attr interpolationmode  none
attr source  dropPkBitError
attr title  "packets dropped/bit error, count"
scalar lteCoreNetwork.UE1.ppp[0].ppp 	droppedPkBitError:sum(packetBytes) 	0
attr interpolationmode  none
attr source  dropPkBitError
attr title  "packets dropped/bit error, sum(packetBytes)"
scalar lteCoreNetwork.UE1.ppp[0].ppp 	rxPkOk:count 	28
attr interpolationmode  none
attr source  rxPkOk
attr title  "packets received OK, count"
scalar lteCoreNetwork.UE1.ppp[0].ppp 	rxPkOk:sum(packetBytes) 	2324
attr interpolationmode  none
attr source  rxPkOk
attr title  "packets received OK, sum(packetBytes)"
scalar lteCoreNetwork.UE1.ppp[0].ppp 	txPk:count 	28
attr interpolationmode  none
attr source  packetSentToLower
attr title  "packets transmitted, count"
scalar lteCoreNetwork.UE1.ppp[0].ppp 	txPk:sum(packetBytes) 	2324
attr interpolationmode  none
attr source  packetSentToLower
attr title  "packets transmitted, sum(packetBytes)"
scalar lteCoreNetwork.UE1.ppp[0].ppp 	txState:timeavg 	0.0002445772441817
attr interpolationmode  sample-hold
attr title  "tx state, timeavg"
scalar lteCoreNetwork.UE1.pingApp[0] 	"Pings sent" 	7
scalar lteCoreNetwork.UE1.pingApp[0] 	"ping loss rate (%)" 	0
scalar lteCoreNetwork.UE1.pingApp[0] 	"ping out-of-order rate (%)" 	0
scalar lteCoreNetwork.UE1.pingApp[0] 	pingRxSeq:count 	7
attr interpolationmode  none
attr title  "ping rx seq, count"
scalar lteCoreNetwork.UE1.pingApp[0] 	pingTxSeq:count 	7
attr interpolationmode  none
attr title  "ping tx seq, count"
scalar lteCoreNetwork.UE1.pingApp[0] 	numOutOfOrderArrivals:last 	-nan
attr interpolationmode  none
attr title  "ping out-of-order arrivals, last"
scalar lteCoreNetwork.UE1.pingApp[0] 	numLost:last 	-nan
attr interpolationmode  none
attr title  "pings lost, last"
statistic lteCoreNetwork.UE1.pingApp[0] 	rtt:histogram
field count 7
field mean 0.0016884
field stddev 2.836010018093e-11
field sum 0.0118188
field sqrsum 1.995486192e-05
field min 0.0016884
field max 0.0016884
attr interpolationmode  none
attr title  "ping round-trip time, histogram"
attr unit  s
bin	-INF	0
bin	-0.4983116	0
bin	-0.46497826666667	0
bin	-0.43164493333333	0
bin	-0.3983116	0
bin	-0.36497826666667	0
bin	-0.33164493333333	0
bin	-0.2983116	0
bin	-0.26497826666667	0
bin	-0.23164493333333	0
bin	-0.1983116	0
bin	-0.16497826666667	0
bin	-0.13164493333333	0
bin	-0.0983116	0
bin	-0.064978266666667	0
bin	-0.031644933333333	0
bin	0.0016884	7
bin	0.035021733333333	0
bin	0.068355066666667	0
bin	0.1016884	0
bin	0.13502173333333	0
bin	0.16835506666667	0
bin	0.2016884	0
bin	0.23502173333333	0
bin	0.26835506666667	0
bin	0.3016884	0
bin	0.33502173333333	0
bin	0.36835506666667	0
bin	0.4016884	0
bin	0.43502173333333	0
bin	0.46835506666667	0
bin	0.5016884	0
scalar lteCoreNetwork.UE1.pingApp[1] 	"Pings sent" 	7
scalar lteCoreNetwork.UE1.pingApp[1] 	"ping loss rate (%)" 	0
scalar lteCoreNetwork.UE1.pingApp[1] 	"ping out-of-order rate (%)" 	0
scalar lteCoreNetwork.UE1.pingApp[1] 	pingRxSeq:count 	7
attr interpolationmode  none
attr title  "ping rx seq, count"
scalar lteCoreNetwork.UE1.pingApp[1] 	pingTxSeq:count 	7
attr interpolationmode  none
attr title  "ping tx seq, count"
scalar lteCoreNetwork.UE1.pingApp[1] 	numOutOfOrderArrivals:last 	-nan
attr interpolationmode  none
attr title  "ping out-of-order arrivals, last"
scalar lteCoreNetwork.UE1.pingApp[1] 	numLost:last 	-nan
attr interpolationmode  none
attr title  "pings lost, last"
statistic lteCoreNetwork.UE1.pingApp[1] 	rtt:histogram
field count 7
field mean 0.0016884
field stddev 2.836010018093e-11
field sum 0.0118188
field sqrsum 1.995486192e-05
field min 0.0016884
field max 0.0016884
attr interpolationmode  none
attr title  "ping round-trip time, histogram"
attr unit  s
bin	-INF	0
bin	-0.4983116	0
bin	-0.46497826666667	0
bin	-0.43164493333333	0
bin	-0.3983116	0
bin	-0.36497826666667	0
bin	-0.33164493333333	0
bin	-0.2983116	0
bin	-0.26497826666667	0
bin	-0.23164493333333	0
bin	-0.1983116	0
bin	-0.16497826666667	0
bin	-0.13164493333333	0
bin	-0.0983116	0
bin	-0.064978266666667	0
bin	-0.031644933333333	0
bin	0.0016884	7
bin	0.035021733333333	0
bin	0.068355066666667	0
bin	0.1016884	0
bin	0.13502173333333	0
bin	0.16835506666667	0
bin	0.2016884	0
bin	0.23502173333333	0
bin	0.26835506666667	0
bin	0.3016884	0
bin	0.33502173333333	0
bin	0.36835506666667	0
bin	0.4016884	0
bin	0.43502173333333	0
bin	0.46835506666667	0
bin	0.5016884	0
scalar lteCoreNetwork.UE2.networkLayer.arp 	failedResolution:count 	0
attr title  "ARP failed resolutions, count"
scalar lteCoreNetwork.UE2.networkLayer.arp 	initiatedResolution:count 	0
attr title  "ARP initiated resolutions, count"
scalar lteCoreNetwork.UE2.networkLayer.arp 	sentReplies:count 	0
attr title  "ARP replies sent, count"
scalar lteCoreNetwork.UE2.networkLayer.arp 	sentReq:count 	0
attr title  "ARP request sent, count"
scalar lteCoreNetwork.UE2.ppp[0].queue 	queueLength:max 	0
attr interpolationmode  sample-hold
attr title  "queue length, max"
scalar lteCoreNetwork.UE2.ppp[0].queue 	queueLength:timeavg 	0
attr interpolationmode  sample-hold
attr title  "queue length, timeavg"
statistic lteCoreNetwork.UE2.ppp[0].queue 	queueingTime:histogram
field count 14
field mean 0
field stddev 0
field sum 0
field sqrsum 0
field min 0
field max 0
attr interpolationmode  none
attr title  "queueing time, histogram"
bin	-INF	0
bin	-0.5	0
bin	-0.46666666666667	0
bin	-0.43333333333333	0
bin	-0.4	0
bin	-0.36666666666667	0
bin	-0.33333333333333	0
bin	-0.3	0
bin	-0.26666666666667	0
bin	-0.23333333333333	0
bin	-0.2	0
bin	-0.16666666666667	0
bin	-0.13333333333333	0
bin	-0.1	0
bin	-0.066666666666667	0
bin	-0.033333333333333	0
bin	-6.9388939039072e-18	14
bin	0.033333333333333	0
bin	0.066666666666667	0
bin	0.1	0
bin	0.13333333333333	0
bin	0.16666666666667	0
bin	0.2	0
bin	0.23333333333333	0
bin	0.26666666666667	0
bin	0.3	0
bin	0.33333333333333	0
bin	0.36666666666667	0
bin	0.4	0
bin	0.43333333333333	0
bin	0.46666666666667	0
bin	0.5	0
scalar lteCoreNetwork.UE2.ppp[0].queue 	dropPk:count 	0
attr interpolationmode  none
attr source  dropPkByQueue
attr title  "dropped packets, count"
scalar lteCoreNetwork.UE2.ppp[0].queue 	dropPk:sum(packetBytes) 	0
attr interpolationmode  none
attr source  dropPkByQueue
attr title  "dropped packets, sum(packetBytes)"
scalar lteCoreNetwork.UE2.ppp[0].queue 	rcvdPk:count 	14
attr interpolationmode  none
attr title  "received packets, count"
scalar lteCoreNetwork.UE2.ppp[0].queue 	rcvdPk:sum(packetBytes) 	1064
attr interpolationmode  none
attr title  "received packets, sum(packetBytes)"
scalar lteCoreNetwork.UE2.ppp[0].ppp 	passedUpPk:count 	14
attr interpolationmode  none
attr source  packetSentToUpper
attr title  "packets passed to higher layer, count"
scalar lteCoreNetwork.UE2.ppp[0].ppp 	passedUpPk:sum(packetBytes) 	1064
attr interpolationmode  none
attr source  packetSentToUpper
attr title  "packets passed to higher layer, sum(packetBytes)"
scalar lteCoreNetwork.UE2.ppp[0].ppp 	rcvdPkFromHL:count 	14
attr interpolationmode  none
attr source  packetReceivedFromUpper
attr title  "packets received from higher layer, count"
scalar lteCoreNetwork.UE2.ppp[0].ppp 	rcvdPkFromHL:sum(packetBytes) 	1064
attr interpolationmode  none
attr source  packetReceivedFromUpper
attr title  "packets received from higher layer, sum(packetBytes)"
scalar lteCoreNetwork.UE2.ppp[0].ppp 	droppedPkIfaceDown:count 	0
attr interpolationmode  none
attr source  dropPkIfaceDown
attr title  "packets dropped/interface down, count"
scalar lteCoreNetwork.UE2.ppp[0].ppp 	droppedPkIfaceDown:sum(packetBytes) 	0
attr interpolationmode  none
attr source  dropPkIfaceDown
attr title  "packets dropped/interface down, sum(packetBytes)"
scalar lteCoreNetwork.UE2.ppp[0].ppp 	droppedPkBitError:count 	0
attr interpolationmode  none
attr source  dropPkBitError
attr title  "packets dropped/bit error, count"
scalar lteCoreNetwork.UE2.ppp[0].ppp 	droppedPkBitError:sum(packetBytes) 	0
attr interpolationmode  none
attr source  dropPkBitError
attr title  "packets dropped/bit error, sum(packetBytes)"
scalar lteCoreNetwork.UE2.ppp[0].ppp 	rxPkOk:count 	14
attr interpolationmode  none
attr source  rxPkOk
attr title  "packets received OK, count"
scalar lteCoreNetwork.UE2.ppp[0].ppp 	rxPkOk:sum(packetBytes) 	1162
attr interpolationmode  none
attr source  rxPkOk
attr title  "packets received OK, sum(packetBytes)"
scalar lteCoreNetwork.UE2.ppp[0].ppp 	txPk:count 	14
attr interpolationmode  none
attr source  packetSentToLower
attr title  "packets transmitted, count"
scalar lteCoreNetwork.UE2.ppp[0].ppp 	txPk:sum(packetBytes) 	1162
attr interpolationmode  none
attr source  packetSentToLower
attr title  "packets transmitted, sum(packetBytes)"
scalar lteCoreNetwork.UE2.ppp[0].ppp 	txState:timeavg 	0.00012228862209085
attr interpolationmode  sample-hold
attr title  "tx state, timeavg"
scalar lteCoreNetwork.UE2.pingApp[0] 	"Pings sent" 	7
scalar lteCoreNetwork.UE2.pingApp[0] 	"ping loss rate (%)" 	0
scalar lteCoreNetwork.UE2.pingApp[0] 	"ping out-of-order rate (%)" 	0
scalar lteCoreNetwork.UE2.pingApp[0] 	pingRxSeq:count 	7
attr interpolationmode  none
attr title  "ping rx seq, count"
scalar lteCoreNetwork.UE2.pingApp[0] 	pingTxSeq:count 	7
attr interpolationmode  none
attr title  "ping tx seq, count"
scalar lteCoreNetwork.UE2.pingApp[0] 	numOutOfOrderArrivals:last 	-nan
attr interpolationmode  none
attr title  "ping out-of-order arrivals, last"
scalar lteCoreNetwork.UE2.pingApp[0] 	numLost:last 	-nan
attr interpolationmode  none
attr title  "pings lost, last"
statistic lteCoreNetwork.UE2.pingApp[0] 	rtt:histogram
field count 7
field mean 0.0016884
field stddev 2.836010018093e-11
field sum 0.0118188
field sqrsum 1.995486192e-05
field min 0.0016884
field max 0.0016884
attr interpolationmode  none
attr title  "ping round-trip time, histogram"
attr unit  s
bin	-INF	0
bin	-0.4983116	0
bin	-0.46497826666667	0
bin	-0.43164493333333	0
bin	-0.3983116	0
bin	-0.36497826666667	0
bin	-0.33164493333333	0
bin	-0.2983116	0
bin	-0.26497826666667	0
bin	-0.23164493333333	0
bin	-0.1983116	0
bin	-0.16497826666667	0
bin	-0.13164493333333	0
bin	-0.0983116	0
bin	-0.064978266666667	0
bin	-0.031644933333333	0
bin	0.0016884	7
bin	0.035021733333333	0
bin	0.068355066666667	0
bin	0.1016884	0
bin	0.13502173333333	0
bin	0.16835506666667	0
bin	0.2016884	0
bin	0.23502173333333	0
bin	0.26835506666667	0
bin	0.3016884	0
bin	0.33502173333333	0
bin	0.36835506666667	0
bin	0.4016884	0
bin	0.43502173333333	0
bin	0.46835506666667	0
bin	0.5016884	0
scalar lteCoreNetwork.UE3.networkLayer.arp 	failedResolution:count 	0
attr title  "ARP failed resolutions, count"
scalar lteCoreNetwork.UE3.networkLayer.arp 	initiatedResolution:count 	0
attr title  "ARP initiated resolutions, count"
scalar lteCoreNetwork.UE3.networkLayer.arp 	sentReplies:count 	0
attr title  "ARP replies sent, count"
scalar lteCoreNetwork.UE3.networkLayer.arp 	sentReq:count 	0
attr title  "ARP request sent, count"
scalar lteCoreNetwork.UE3.ppp[0].queue 	queueLength:max 	0
attr interpolationmode  sample-hold
attr title  "queue length, max"
scalar lteCoreNetwork.UE3.ppp[0].queue 	queueLength:timeavg 	0
attr interpolationmode  sample-hold
attr title  "queue length, timeavg"
statistic lteCoreNetwork.UE3.ppp[0].queue 	queueingTime:histogram
field count 14
field mean 0
field stddev 0
field sum 0
field sqrsum 0
field min 0
field max 0
attr interpolationmode  none
attr title  "queueing time, histogram"
bin	-INF	0
bin	-0.5	0
bin	-0.46666666666667	0
bin	-0.43333333333333	0
bin	-0.4	0
bin	-0.36666666666667	0
bin	-0.33333333333333	0
bin	-0.3	0
bin	-0.26666666666667	0
bin	-0.23333333333333	0
bin	-0.2	0
bin	-0.16666666666667	0
bin	-0.13333333333333	0
bin	-0.1	0
bin	-0.066666666666667	0
bin	-0.033333333333333	0
bin	-6.9388939039072e-18	14
bin	0.033333333333333	0
bin	0.066666666666667	0
bin	0.1	0
bin	0.13333333333333	0
bin	0.16666666666667	0
bin	0.2	0
bin	0.23333333333333	0
bin	0.26666666666667	0
bin	0.3	0
bin	0.33333333333333	0
bin	0.36666666666667	0
bin	0.4	0
bin	0.43333333333333	0
bin	0.46666666666667	0
bin	0.5	0
scalar lteCoreNetwork.UE3.ppp[0].queue 	dropPk:count 	0
attr interpolationmode  none
attr source  dropPkByQueue
attr title  "dropped packets, count"
scalar lteCoreNetwork.UE3.ppp[0].queue 	dropPk:sum(packetBytes) 	0
attr interpolationmode  none
attr source  dropPkByQueue
attr title  "dropped packets, sum(packetBytes)"
scalar lteCoreNetwork.UE3.ppp[0].queue 	rcvdPk:count 	14
attr interpolationmode  none
attr title  "received packets, count"
scalar lteCoreNetwork.UE3.ppp[0].queue 	rcvdPk:sum(packetBytes) 	1064
attr interpolationmode  none
attr title  "received packets, sum(packetBytes)"
scalar lteCoreNetwork.UE3.ppp[0].ppp 	passedUpPk:count 	14
attr interpolationmode  none
attr source  packetSentToUpper
attr title  "packets passed to higher layer, count"
scalar lteCoreNetwork.UE3.ppp[0].ppp 	passedUpPk:sum(packetBytes) 	1064
attr interpolationmode  none
attr source  packetSentToUpper
attr title  "packets passed to higher layer, sum(packetBytes)"
scalar lteCoreNetwork.UE3.ppp[0].ppp 	rcvdPkFromHL:count 	14
attr interpolationmode  none
attr source  packetReceivedFromUpper
attr title  "packets received from higher layer, count"
scalar lteCoreNetwork.UE3.ppp[0].ppp 	rcvdPkFromHL:sum(packetBytes) 	1064
attr interpolationmode  none
attr source  packetReceivedFromUpper
attr title  "packets received from higher layer, sum(packetBytes)"
scalar lteCoreNetwork.UE3.ppp[0].ppp 	droppedPkIfaceDown:count 	0
attr interpolationmode  none
attr source  dropPkIfaceDown
attr title  "packets dropped/interface down, count"
scalar lteCoreNetwork.UE3.ppp[0].ppp 	droppedPkIfaceDown:sum(packetBytes) 	0
attr interpolationmode  none
attr source  dropPkIfaceDown
attr title  "packets dropped/interface down, sum(packetBytes)"
scalar lteCoreNetwork.UE3.ppp[0].ppp 	droppedPkBitError:count 	0
attr interpolationmode  none
attr source  dropPkBitError
attr title  "packets dropped/bit error, count"
scalar lteCoreNetwork.UE3.ppp[0].ppp 	droppedPkBitError:sum(packetBytes) 	0
attr interpolationmode  none
attr source  dropPkBitError
attr title  "packets dropped/bit error, sum(packetBytes)"
scalar lteCoreNetwork.UE3.ppp[0].ppp 	rxPkOk:count 	14
attr interpolationmode  none
attr source  rxPkOk
attr title  "packets received OK, count"
scalar lteCoreNetwork.UE3.ppp[0].ppp 	rxPkOk:sum(packetBytes) 	1162
attr interpolationmode  none
attr source  rxPkOk
attr title  "packets received OK, sum(packetBytes)"
scalar lteCoreNetwork.UE3.ppp[0].ppp 	txPk:count 	14
attr interpolationmode  none
attr source  packetSentToLower
attr title  "packets transmitted, count"
scalar lteCoreNetwork.UE3.ppp[0].ppp 	txPk:sum(packetBytes) 	1162
attr interpolationmode  none
attr source  packetSentToLower
attr title  "packets transmitted, sum(packetBytes)"
scalar lteCoreNetwork.UE3.ppp[0].ppp 	txState:timeavg 	0.00012228862209085
attr interpolationmode  sample-hold
attr title  "tx state, timeavg"
scalar lteCoreNetwork.UE3.pingApp[0] 	"Pings sent" 	7
scalar lteCoreNetwork.UE3.pingApp[0] 	"ping loss rate (%)" 	0
scalar lteCoreNetwork.UE3.pingApp[0] 	"ping out-of-order rate (%)" 	0
scalar lteCoreNetwork.UE3.pingApp[0] 	pingRxSeq:count 	7
attr interpolationmode  none
attr title  "ping rx seq, count"
scalar lteCoreNetwork.UE3.pingApp[0] 	pingTxSeq:count 	7
attr interpolationmode  none
attr title  "ping tx seq, count"
scalar lteCoreNetwork.UE3.pingApp[0] 	numOutOfOrderArrivals:last 	-nan
attr interpolationmode  none
attr title  "ping out-of-order arrivals, last"
scalar lteCoreNetwork.UE3.pingApp[0] 	numLost:last 	-nan
attr interpolationmode  none
attr title  "pings lost, last"
statistic lteCoreNetwork.UE3.pingApp[0] 	rtt:histogram
field count 7
field mean 0.0016884
field stddev 2.836010018093e-11
field sum 0.0118188
field sqrsum 1.995486192e-05
field min 0.0016884
field max 0.0016884
attr interpolationmode  none
attr title  "ping round-trip time, histogram"
attr unit  s
bin	-INF	0
bin	-0.4983116	0
bin	-0.46497826666667	0
bin	-0.43164493333333	0
bin	-0.3983116	0
bin	-0.36497826666667	0
bin	-0.33164493333333	0
bin	-0.2983116	0
bin	-0.26497826666667	0
bin	-0.23164493333333	0
bin	-0.1983116	0
bin	-0.16497826666667	0
bin	-0.13164493333333	0
bin	-0.0983116	0
bin	-0.064978266666667	0
bin	-0.031644933333333	0
bin	0.0016884	7
bin	0.035021733333333	0
bin	0.068355066666667	0
bin	0.1016884	0
bin	0.13502173333333	0
bin	0.16835506666667	0
bin	0.2016884	0
bin	0.23502173333333	0
bin	0.26835506666667	0
bin	0.3016884	0
bin	0.33502173333333	0
bin	0.36835506666667	0
bin	0.4016884	0
bin	0.43502173333333	0
bin	0.46835506666667	0
bin	0.5016884	0
